LTspice 26.0.1 for Windows
Circuit: Z:\home\giorgio\Documenti\PolitoMaterial\Tesi\PoliTOThesis\Resources\simulations\SlowLeg_driver\Eon_Eoff_circuit_reverse.net
Start Time: Mon Mar 30 20:41:34 2026

.step vds=0.1 ids=0.1
solver = Normal
Maximum thread count: 8
tnom = 27
temp = 27
method = trap
Direct Newton iteration succeeded in finding operating point.

.step vds=0.109647819614319 ids=0.1
Direct Newton iteration succeeded in finding operating point.

.step vds=0.120226443461741 ids=0.1
Direct Newton iteration succeeded in finding operating point.

.step vds=0.131825673855641 ids=0.1
Direct Newton iteration succeeded in finding operating point.

.step vds=0.144543977074593 ids=0.1
Direct Newton iteration succeeded in finding operating point.

.step vds=0.158489319246111 ids=0.1
Direct Newton iteration succeeded in finding operating point.

.step vds=0.173780082874938 ids=0.1
Direct Newton iteration succeeded in finding operating point.

.step vds=0.190546071796325 ids=0.1
Direct Newton iteration succeeded in finding operating point.

.step vds=0.208929613085404 ids=0.1
Direct Newton iteration succeeded in finding operating point.

.step vds=0.229086765276777 ids=0.1
Direct Newton iteration succeeded in finding operating point.

.step vds=0.251188643150958 ids=0.1
Direct Newton iteration succeeded in finding operating point.

.step vds=0.275422870333817 ids=0.1
Direct Newton iteration succeeded in finding operating point.

.step vds=0.301995172040202 ids=0.1
Direct Newton iteration succeeded in finding operating point.

.step vds=0.331131121482591 ids=0.1
Direct Newton iteration succeeded in finding operating point.

.step vds=0.363078054770102 ids=0.1
Direct Newton iteration succeeded in finding operating point.

.step vds=0.398107170553498 ids=0.1
Direct Newton iteration succeeded in finding operating point.

.step vds=0.436515832240166 ids=0.1
Direct Newton iteration succeeded in finding operating point.

.step vds=0.478630092322639 ids=0.1
Direct Newton iteration succeeded in finding operating point.

.step vds=0.524807460249773 ids=0.1
Direct Newton iteration succeeded in finding operating point.

.step vds=0.575439937337158 ids=0.1
Direct Newton iteration succeeded in finding operating point.

.step vds=0.630957344480194 ids=0.1
Direct Newton iteration succeeded in finding operating point.

.step vds=0.691830970918938 ids=0.1
Direct Newton iteration succeeded in finding operating point.

.step vds=0.758577575029185 ids=0.1
Direct Newton iteration succeeded in finding operating point.

.step vds=0.831763771102672 ids=0.1
Direct Newton iteration succeeded in finding operating point.

.step vds=0.912010839355911 ids=0.1
Direct Newton iteration succeeded in finding operating point.

.step vds=1 ids=0.1
Direct Newton iteration succeeded in finding operating point.

.step vds=1.09647819614319 ids=0.1
Direct Newton iteration succeeded in finding operating point.

.step vds=1.20226443461742 ids=0.1
Direct Newton iteration succeeded in finding operating point.

.step vds=1.31825673855641 ids=0.1
Direct Newton iteration succeeded in finding operating point.

.step vds=1.44543977074593 ids=0.1
Direct Newton iteration succeeded in finding operating point.

.step vds=1.58489319246112 ids=0.1
Direct Newton iteration succeeded in finding operating point.

.step vds=1.73780082874938 ids=0.1
Direct Newton iteration succeeded in finding operating point.

.step vds=1.90546071796325 ids=0.1
Direct Newton iteration succeeded in finding operating point.

.step vds=2.08929613085404 ids=0.1
Direct Newton iteration succeeded in finding operating point.

.step vds=2.29086765276778 ids=0.1
Direct Newton iteration succeeded in finding operating point.

.step vds=2.51188643150959 ids=0.1
Direct Newton iteration succeeded in finding operating point.

.step vds=2.75422870333817 ids=0.1
Direct Newton iteration succeeded in finding operating point.

.step vds=3.01995172040202 ids=0.1
Direct Newton iteration succeeded in finding operating point.

.step vds=3.31131121482592 ids=0.1
Direct Newton iteration succeeded in finding operating point.

.step vds=3.63078054770102 ids=0.1
Direct Newton iteration succeeded in finding operating point.

.step vds=3.98107170553498 ids=0.1
Direct Newton iteration succeeded in finding operating point.

.step vds=4.36515832240167 ids=0.1
Direct Newton iteration succeeded in finding operating point.

.step vds=4.7863009232264 ids=0.1
Direct Newton iteration succeeded in finding operating point.

.step vds=5.24807460249774 ids=0.1
Direct Newton iteration succeeded in finding operating point.

.step vds=5.75439937337159 ids=0.1
Direct Newton iteration succeeded in finding operating point.

.step vds=6.30957344480195 ids=0.1
Direct Newton iteration succeeded in finding operating point.

.step vds=6.91830970918939 ids=0.1
Direct Newton iteration succeeded in finding operating point.

.step vds=7.58577575029186 ids=0.1
Direct Newton iteration succeeded in finding operating point.

.step vds=8.31763771102674 ids=0.1
Direct Newton iteration succeeded in finding operating point.

.step vds=9.12010839355913 ids=0.1
Direct Newton iteration succeeded in finding operating point.

.step vds=10 ids=0.1
Direct Newton iteration succeeded in finding operating point.

.step vds=10.9647819614319 ids=0.1
Direct Newton iteration succeeded in finding operating point.

.step vds=12.0226443461742 ids=0.1
Direct Newton iteration succeeded in finding operating point.

.step vds=13.1825673855641 ids=0.1
Direct Newton iteration succeeded in finding operating point.

.step vds=14.4543977074593 ids=0.1
Direct Newton iteration succeeded in finding operating point.

.step vds=15.8489319246112 ids=0.1
Direct Newton iteration succeeded in finding operating point.

.step vds=17.3780082874938 ids=0.1
Direct Newton iteration succeeded in finding operating point.

.step vds=19.0546071796326 ids=0.1
Direct Newton iteration succeeded in finding operating point.

.step vds=20.8929613085405 ids=0.1
Direct Newton iteration succeeded in finding operating point.

.step vds=22.9086765276778 ids=0.1
Direct Newton iteration succeeded in finding operating point.

.step vds=25.1188643150959 ids=0.1
Direct Newton iteration succeeded in finding operating point.

.step vds=27.5422870333818 ids=0.1
Direct Newton iteration succeeded in finding operating point.

.step vds=30.1995172040203 ids=0.1
Direct Newton iteration succeeded in finding operating point.

.step vds=33.1131121482593 ids=0.1
Direct Newton iteration succeeded in finding operating point.

.step vds=36.3078054770103 ids=0.1
Direct Newton iteration succeeded in finding operating point.

.step vds=39.8107170553499 ids=0.1
Direct Newton iteration succeeded in finding operating point.

.step vds=43.6515832240168 ids=0.1
Direct Newton iteration succeeded in finding operating point.

.step vds=47.8630092322641 ids=0.1
Direct Newton iteration succeeded in finding operating point.

.step vds=52.4807460249775 ids=0.1
Direct Newton iteration succeeded in finding operating point.

.step vds=57.543993733716 ids=0.1
Direct Newton iteration succeeded in finding operating point.

.step vds=63.0957344480196 ids=0.1
Direct Newton iteration succeeded in finding operating point.

.step vds=69.183097091894 ids=0.1
Direct Newton iteration succeeded in finding operating point.

.step vds=75.8577575029188 ids=0.1
Direct Newton iteration succeeded in finding operating point.

.step vds=83.1763771102675 ids=0.1
Direct Newton iteration succeeded in finding operating point.

.step vds=91.2010839355915 ids=0.1
Direct Newton iteration succeeded in finding operating point.

.step vds=100.000000000001 ids=0.1
Direct Newton iteration succeeded in finding operating point.

.step vds=109.647819614319 ids=0.1
Direct Newton iteration succeeded in finding operating point.

.step vds=120.226443461742 ids=0.1
Direct Newton iteration succeeded in finding operating point.

.step vds=131.825673855641 ids=0.1
Direct Newton iteration succeeded in finding operating point.

.step vds=144.543977074594 ids=0.1
Direct Newton iteration succeeded in finding operating point.

.step vds=158.489319246112 ids=0.1
Direct Newton iteration succeeded in finding operating point.

.step vds=173.780082874939 ids=0.1
Direct Newton iteration succeeded in finding operating point.

.step vds=190.546071796326 ids=0.1
Direct Newton iteration succeeded in finding operating point.

.step vds=208.929613085405 ids=0.1
Direct Newton iteration succeeded in finding operating point.

.step vds=229.086765276779 ids=0.1
Direct Newton iteration succeeded in finding operating point.

.step vds=251.18864315096 ids=0.1
Direct Newton iteration succeeded in finding operating point.

.step vds=275.422870333818 ids=0.1
Direct Newton iteration succeeded in finding operating point.

.step vds=301.995172040203 ids=0.1
Direct Newton iteration succeeded in finding operating point.

.step vds=331.131121482593 ids=0.1
Direct Newton iteration succeeded in finding operating point.

.step vds=363.078054770104 ids=0.1
Direct Newton iteration succeeded in finding operating point.

.step vds=398.1071705535 ids=0.1
Direct Newton iteration succeeded in finding operating point.

.step vds=436.515832240169 ids=0.1
Direct Newton iteration succeeded in finding operating point.

.step vds=478.630092322642 ids=0.1
Direct Newton iteration succeeded in finding operating point.

.step vds=524.807460249776 ids=0.1
Direct Newton iteration succeeded in finding operating point.

.step vds=575.439937337161 ids=0.1
Direct Newton iteration succeeded in finding operating point.

.step vds=601 ids=0.1
Direct Newton iteration succeeded in finding operating point.

.step vds=0.1 ids=0.125892541179417
Direct Newton iteration succeeded in finding operating point.

.step vds=0.109647819614319 ids=0.125892541179417
Direct Newton iteration succeeded in finding operating point.

.step vds=0.120226443461741 ids=0.125892541179417
Direct Newton iteration succeeded in finding operating point.

.step vds=0.131825673855641 ids=0.125892541179417
Direct Newton iteration succeeded in finding operating point.

.step vds=0.144543977074593 ids=0.125892541179417
Direct Newton iteration succeeded in finding operating point.

.step vds=0.158489319246111 ids=0.125892541179417
Direct Newton iteration succeeded in finding operating point.

.step vds=0.173780082874938 ids=0.125892541179417
Direct Newton iteration succeeded in finding operating point.

.step vds=0.190546071796325 ids=0.125892541179417
Direct Newton iteration succeeded in finding operating point.

.step vds=0.208929613085404 ids=0.125892541179417
Direct Newton iteration succeeded in finding operating point.

.step vds=0.229086765276777 ids=0.125892541179417
Direct Newton iteration succeeded in finding operating point.

.step vds=0.251188643150958 ids=0.125892541179417
Direct Newton iteration succeeded in finding operating point.

.step vds=0.275422870333817 ids=0.125892541179417
Direct Newton iteration succeeded in finding operating point.

.step vds=0.301995172040202 ids=0.125892541179417
Direct Newton iteration succeeded in finding operating point.

.step vds=0.331131121482591 ids=0.125892541179417
Direct Newton iteration succeeded in finding operating point.

.step vds=0.363078054770102 ids=0.125892541179417
Direct Newton iteration succeeded in finding operating point.

.step vds=0.398107170553498 ids=0.125892541179417
Direct Newton iteration succeeded in finding operating point.

.step vds=0.436515832240166 ids=0.125892541179417
Direct Newton iteration succeeded in finding operating point.

.step vds=0.478630092322639 ids=0.125892541179417
Direct Newton iteration succeeded in finding operating point.

.step vds=0.524807460249773 ids=0.125892541179417
Direct Newton iteration succeeded in finding operating point.

.step vds=0.575439937337158 ids=0.125892541179417
Direct Newton iteration succeeded in finding operating point.

.step vds=0.630957344480194 ids=0.125892541179417
Direct Newton iteration succeeded in finding operating point.

.step vds=0.691830970918938 ids=0.125892541179417
Direct Newton iteration succeeded in finding operating point.

.step vds=0.758577575029185 ids=0.125892541179417
Direct Newton iteration succeeded in finding operating point.

.step vds=0.831763771102672 ids=0.125892541179417
Direct Newton iteration succeeded in finding operating point.

.step vds=0.912010839355911 ids=0.125892541179417
Direct Newton iteration succeeded in finding operating point.

.step vds=1 ids=0.125892541179417
Direct Newton iteration succeeded in finding operating point.

.step vds=1.09647819614319 ids=0.125892541179417
Direct Newton iteration succeeded in finding operating point.

.step vds=1.20226443461742 ids=0.125892541179417
Direct Newton iteration succeeded in finding operating point.

.step vds=1.31825673855641 ids=0.125892541179417
Direct Newton iteration succeeded in finding operating point.

.step vds=1.44543977074593 ids=0.125892541179417
Direct Newton iteration succeeded in finding operating point.

.step vds=1.58489319246112 ids=0.125892541179417
Direct Newton iteration succeeded in finding operating point.

.step vds=1.73780082874938 ids=0.125892541179417
Direct Newton iteration succeeded in finding operating point.

.step vds=1.90546071796325 ids=0.125892541179417
Direct Newton iteration succeeded in finding operating point.

.step vds=2.08929613085404 ids=0.125892541179417
Direct Newton iteration succeeded in finding operating point.

.step vds=2.29086765276778 ids=0.125892541179417
Direct Newton iteration succeeded in finding operating point.

.step vds=2.51188643150959 ids=0.125892541179417
Direct Newton iteration succeeded in finding operating point.

.step vds=2.75422870333817 ids=0.125892541179417
Direct Newton iteration succeeded in finding operating point.

.step vds=3.01995172040202 ids=0.125892541179417
Direct Newton iteration succeeded in finding operating point.

.step vds=3.31131121482592 ids=0.125892541179417
Direct Newton iteration succeeded in finding operating point.

.step vds=3.63078054770102 ids=0.125892541179417
Direct Newton iteration succeeded in finding operating point.

.step vds=3.98107170553498 ids=0.125892541179417
Direct Newton iteration succeeded in finding operating point.

.step vds=4.36515832240167 ids=0.125892541179417
Direct Newton iteration succeeded in finding operating point.

.step vds=4.7863009232264 ids=0.125892541179417
Direct Newton iteration succeeded in finding operating point.

.step vds=5.24807460249774 ids=0.125892541179417
Direct Newton iteration succeeded in finding operating point.

.step vds=5.75439937337159 ids=0.125892541179417
Direct Newton iteration succeeded in finding operating point.

.step vds=6.30957344480195 ids=0.125892541179417
Direct Newton iteration succeeded in finding operating point.

.step vds=6.91830970918939 ids=0.125892541179417
Direct Newton iteration succeeded in finding operating point.

.step vds=7.58577575029186 ids=0.125892541179417
Direct Newton iteration succeeded in finding operating point.

.step vds=8.31763771102674 ids=0.125892541179417
Direct Newton iteration succeeded in finding operating point.

.step vds=9.12010839355913 ids=0.125892541179417
Direct Newton iteration succeeded in finding operating point.

.step vds=10 ids=0.125892541179417
Direct Newton iteration succeeded in finding operating point.

.step vds=10.9647819614319 ids=0.125892541179417
Direct Newton iteration succeeded in finding operating point.

.step vds=12.0226443461742 ids=0.125892541179417
Direct Newton iteration succeeded in finding operating point.

.step vds=13.1825673855641 ids=0.125892541179417
Direct Newton iteration succeeded in finding operating point.

.step vds=14.4543977074593 ids=0.125892541179417
Direct Newton iteration succeeded in finding operating point.

.step vds=15.8489319246112 ids=0.125892541179417
Direct Newton iteration succeeded in finding operating point.

.step vds=17.3780082874938 ids=0.125892541179417
Direct Newton iteration succeeded in finding operating point.

.step vds=19.0546071796326 ids=0.125892541179417
Direct Newton iteration succeeded in finding operating point.

.step vds=20.8929613085405 ids=0.125892541179417
Direct Newton iteration succeeded in finding operating point.

.step vds=22.9086765276778 ids=0.125892541179417
Direct Newton iteration succeeded in finding operating point.

.step vds=25.1188643150959 ids=0.125892541179417
Direct Newton iteration succeeded in finding operating point.

.step vds=27.5422870333818 ids=0.125892541179417
Direct Newton iteration succeeded in finding operating point.

.step vds=30.1995172040203 ids=0.125892541179417
Direct Newton iteration succeeded in finding operating point.

.step vds=33.1131121482593 ids=0.125892541179417
Direct Newton iteration succeeded in finding operating point.

.step vds=36.3078054770103 ids=0.125892541179417
Direct Newton iteration succeeded in finding operating point.

.step vds=39.8107170553499 ids=0.125892541179417
Direct Newton iteration succeeded in finding operating point.

.step vds=43.6515832240168 ids=0.125892541179417
Direct Newton iteration succeeded in finding operating point.

.step vds=47.8630092322641 ids=0.125892541179417
Direct Newton iteration succeeded in finding operating point.

.step vds=52.4807460249775 ids=0.125892541179417
Direct Newton iteration succeeded in finding operating point.

.step vds=57.543993733716 ids=0.125892541179417
Direct Newton iteration succeeded in finding operating point.

.step vds=63.0957344480196 ids=0.125892541179417
Direct Newton iteration succeeded in finding operating point.

.step vds=69.183097091894 ids=0.125892541179417
Direct Newton iteration succeeded in finding operating point.

.step vds=75.8577575029188 ids=0.125892541179417
Direct Newton iteration succeeded in finding operating point.

.step vds=83.1763771102675 ids=0.125892541179417
Direct Newton iteration succeeded in finding operating point.

.step vds=91.2010839355915 ids=0.125892541179417
Direct Newton iteration succeeded in finding operating point.

.step vds=100.000000000001 ids=0.125892541179417
Direct Newton iteration succeeded in finding operating point.

.step vds=109.647819614319 ids=0.125892541179417
Direct Newton iteration succeeded in finding operating point.

.step vds=120.226443461742 ids=0.125892541179417
Direct Newton iteration succeeded in finding operating point.

.step vds=131.825673855641 ids=0.125892541179417
Direct Newton iteration succeeded in finding operating point.

.step vds=144.543977074594 ids=0.125892541179417
Direct Newton iteration succeeded in finding operating point.

.step vds=158.489319246112 ids=0.125892541179417
Direct Newton iteration succeeded in finding operating point.

.step vds=173.780082874939 ids=0.125892541179417
Direct Newton iteration succeeded in finding operating point.

.step vds=190.546071796326 ids=0.125892541179417
Direct Newton iteration succeeded in finding operating point.

.step vds=208.929613085405 ids=0.125892541179417
Direct Newton iteration succeeded in finding operating point.

.step vds=229.086765276779 ids=0.125892541179417
Direct Newton iteration succeeded in finding operating point.

.step vds=251.18864315096 ids=0.125892541179417
Direct Newton iteration succeeded in finding operating point.

.step vds=275.422870333818 ids=0.125892541179417
Direct Newton iteration succeeded in finding operating point.

.step vds=301.995172040203 ids=0.125892541179417
Direct Newton iteration succeeded in finding operating point.

.step vds=331.131121482593 ids=0.125892541179417
Direct Newton iteration succeeded in finding operating point.

.step vds=363.078054770104 ids=0.125892541179417
Direct Newton iteration succeeded in finding operating point.

.step vds=398.1071705535 ids=0.125892541179417
Direct Newton iteration succeeded in finding operating point.

.step vds=436.515832240169 ids=0.125892541179417
Direct Newton iteration succeeded in finding operating point.

.step vds=478.630092322642 ids=0.125892541179417
Direct Newton iteration succeeded in finding operating point.

.step vds=524.807460249776 ids=0.125892541179417
Direct Newton iteration succeeded in finding operating point.

.step vds=575.439937337161 ids=0.125892541179417
Direct Newton iteration succeeded in finding operating point.

.step vds=601 ids=0.125892541179417
Direct Newton iteration succeeded in finding operating point.

.step vds=0.1 ids=0.158489319246111
Direct Newton iteration succeeded in finding operating point.

.step vds=0.109647819614319 ids=0.158489319246111
Direct Newton iteration succeeded in finding operating point.

.step vds=0.120226443461741 ids=0.158489319246111
Direct Newton iteration succeeded in finding operating point.

.step vds=0.131825673855641 ids=0.158489319246111
Direct Newton iteration succeeded in finding operating point.

.step vds=0.144543977074593 ids=0.158489319246111
Direct Newton iteration succeeded in finding operating point.

.step vds=0.158489319246111 ids=0.158489319246111
Direct Newton iteration succeeded in finding operating point.

.step vds=0.173780082874938 ids=0.158489319246111
Direct Newton iteration succeeded in finding operating point.

.step vds=0.190546071796325 ids=0.158489319246111
Direct Newton iteration succeeded in finding operating point.

.step vds=0.208929613085404 ids=0.158489319246111
Direct Newton iteration succeeded in finding operating point.

.step vds=0.229086765276777 ids=0.158489319246111
Direct Newton iteration succeeded in finding operating point.

.step vds=0.251188643150958 ids=0.158489319246111
Direct Newton iteration succeeded in finding operating point.

.step vds=0.275422870333817 ids=0.158489319246111
Direct Newton iteration succeeded in finding operating point.

.step vds=0.301995172040202 ids=0.158489319246111
Direct Newton iteration succeeded in finding operating point.

.step vds=0.331131121482591 ids=0.158489319246111
Direct Newton iteration succeeded in finding operating point.

.step vds=0.363078054770102 ids=0.158489319246111
Direct Newton iteration succeeded in finding operating point.

.step vds=0.398107170553498 ids=0.158489319246111
Direct Newton iteration succeeded in finding operating point.

.step vds=0.436515832240166 ids=0.158489319246111
Direct Newton iteration succeeded in finding operating point.

.step vds=0.478630092322639 ids=0.158489319246111
Direct Newton iteration succeeded in finding operating point.

.step vds=0.524807460249773 ids=0.158489319246111
Direct Newton iteration succeeded in finding operating point.

.step vds=0.575439937337158 ids=0.158489319246111
Direct Newton iteration succeeded in finding operating point.

.step vds=0.630957344480194 ids=0.158489319246111
Direct Newton iteration succeeded in finding operating point.

.step vds=0.691830970918938 ids=0.158489319246111
Direct Newton iteration succeeded in finding operating point.

.step vds=0.758577575029185 ids=0.158489319246111
Direct Newton iteration succeeded in finding operating point.

.step vds=0.831763771102672 ids=0.158489319246111
Direct Newton iteration succeeded in finding operating point.

.step vds=0.912010839355911 ids=0.158489319246111
Direct Newton iteration succeeded in finding operating point.

.step vds=1 ids=0.158489319246111
Direct Newton iteration succeeded in finding operating point.

.step vds=1.09647819614319 ids=0.158489319246111
Direct Newton iteration succeeded in finding operating point.

.step vds=1.20226443461742 ids=0.158489319246111
Direct Newton iteration succeeded in finding operating point.

.step vds=1.31825673855641 ids=0.158489319246111
Direct Newton iteration succeeded in finding operating point.

.step vds=1.44543977074593 ids=0.158489319246111
Direct Newton iteration succeeded in finding operating point.

.step vds=1.58489319246112 ids=0.158489319246111
Direct Newton iteration succeeded in finding operating point.

.step vds=1.73780082874938 ids=0.158489319246111
Direct Newton iteration succeeded in finding operating point.

.step vds=1.90546071796325 ids=0.158489319246111
Direct Newton iteration succeeded in finding operating point.

.step vds=2.08929613085404 ids=0.158489319246111
Direct Newton iteration succeeded in finding operating point.

.step vds=2.29086765276778 ids=0.158489319246111
Direct Newton iteration succeeded in finding operating point.

.step vds=2.51188643150959 ids=0.158489319246111
Direct Newton iteration succeeded in finding operating point.

.step vds=2.75422870333817 ids=0.158489319246111
Direct Newton iteration succeeded in finding operating point.

.step vds=3.01995172040202 ids=0.158489319246111
Direct Newton iteration succeeded in finding operating point.

.step vds=3.31131121482592 ids=0.158489319246111
Direct Newton iteration succeeded in finding operating point.

.step vds=3.63078054770102 ids=0.158489319246111
Direct Newton iteration succeeded in finding operating point.

.step vds=3.98107170553498 ids=0.158489319246111
Direct Newton iteration succeeded in finding operating point.

.step vds=4.36515832240167 ids=0.158489319246111
Direct Newton iteration succeeded in finding operating point.

.step vds=4.7863009232264 ids=0.158489319246111
Direct Newton iteration succeeded in finding operating point.

.step vds=5.24807460249774 ids=0.158489319246111
Direct Newton iteration succeeded in finding operating point.

.step vds=5.75439937337159 ids=0.158489319246111
Direct Newton iteration succeeded in finding operating point.

.step vds=6.30957344480195 ids=0.158489319246111
Direct Newton iteration succeeded in finding operating point.

.step vds=6.91830970918939 ids=0.158489319246111
Direct Newton iteration succeeded in finding operating point.

.step vds=7.58577575029186 ids=0.158489319246111
Direct Newton iteration succeeded in finding operating point.

.step vds=8.31763771102674 ids=0.158489319246111
Direct Newton iteration succeeded in finding operating point.

.step vds=9.12010839355913 ids=0.158489319246111
Direct Newton iteration succeeded in finding operating point.

.step vds=10 ids=0.158489319246111
Direct Newton iteration succeeded in finding operating point.

.step vds=10.9647819614319 ids=0.158489319246111
Direct Newton iteration succeeded in finding operating point.

.step vds=12.0226443461742 ids=0.158489319246111
Direct Newton iteration succeeded in finding operating point.

.step vds=13.1825673855641 ids=0.158489319246111
Direct Newton iteration succeeded in finding operating point.

.step vds=14.4543977074593 ids=0.158489319246111
Direct Newton iteration succeeded in finding operating point.

.step vds=15.8489319246112 ids=0.158489319246111
Direct Newton iteration succeeded in finding operating point.

.step vds=17.3780082874938 ids=0.158489319246111
Direct Newton iteration succeeded in finding operating point.

.step vds=19.0546071796326 ids=0.158489319246111
Direct Newton iteration succeeded in finding operating point.

.step vds=20.8929613085405 ids=0.158489319246111
Direct Newton iteration succeeded in finding operating point.

.step vds=22.9086765276778 ids=0.158489319246111
Direct Newton iteration succeeded in finding operating point.

.step vds=25.1188643150959 ids=0.158489319246111
Direct Newton iteration succeeded in finding operating point.

.step vds=27.5422870333818 ids=0.158489319246111
Direct Newton iteration succeeded in finding operating point.

.step vds=30.1995172040203 ids=0.158489319246111
Direct Newton iteration succeeded in finding operating point.

.step vds=33.1131121482593 ids=0.158489319246111
Direct Newton iteration succeeded in finding operating point.

.step vds=36.3078054770103 ids=0.158489319246111
Direct Newton iteration succeeded in finding operating point.

.step vds=39.8107170553499 ids=0.158489319246111
Direct Newton iteration succeeded in finding operating point.

.step vds=43.6515832240168 ids=0.158489319246111
Direct Newton iteration succeeded in finding operating point.

.step vds=47.8630092322641 ids=0.158489319246111
Direct Newton iteration succeeded in finding operating point.

.step vds=52.4807460249775 ids=0.158489319246111
Direct Newton iteration succeeded in finding operating point.

.step vds=57.543993733716 ids=0.158489319246111
Direct Newton iteration succeeded in finding operating point.

.step vds=63.0957344480196 ids=0.158489319246111
Direct Newton iteration succeeded in finding operating point.

.step vds=69.183097091894 ids=0.158489319246111
Direct Newton iteration succeeded in finding operating point.

.step vds=75.8577575029188 ids=0.158489319246111
Direct Newton iteration succeeded in finding operating point.

.step vds=83.1763771102675 ids=0.158489319246111
Direct Newton iteration succeeded in finding operating point.

.step vds=91.2010839355915 ids=0.158489319246111
Direct Newton iteration succeeded in finding operating point.

.step vds=100.000000000001 ids=0.158489319246111
Direct Newton iteration succeeded in finding operating point.

.step vds=109.647819614319 ids=0.158489319246111
Direct Newton iteration succeeded in finding operating point.

.step vds=120.226443461742 ids=0.158489319246111
Direct Newton iteration succeeded in finding operating point.

.step vds=131.825673855641 ids=0.158489319246111
Direct Newton iteration succeeded in finding operating point.

.step vds=144.543977074594 ids=0.158489319246111
Direct Newton iteration succeeded in finding operating point.

.step vds=158.489319246112 ids=0.158489319246111
Direct Newton iteration succeeded in finding operating point.

.step vds=173.780082874939 ids=0.158489319246111
Direct Newton iteration succeeded in finding operating point.

.step vds=190.546071796326 ids=0.158489319246111
Direct Newton iteration succeeded in finding operating point.

.step vds=208.929613085405 ids=0.158489319246111
Direct Newton iteration succeeded in finding operating point.

.step vds=229.086765276779 ids=0.158489319246111
Direct Newton iteration succeeded in finding operating point.

.step vds=251.18864315096 ids=0.158489319246111
Direct Newton iteration succeeded in finding operating point.

.step vds=275.422870333818 ids=0.158489319246111
Direct Newton iteration succeeded in finding operating point.

.step vds=301.995172040203 ids=0.158489319246111
Direct Newton iteration succeeded in finding operating point.

.step vds=331.131121482593 ids=0.158489319246111
Direct Newton iteration succeeded in finding operating point.

.step vds=363.078054770104 ids=0.158489319246111
Direct Newton iteration succeeded in finding operating point.

.step vds=398.1071705535 ids=0.158489319246111
Direct Newton iteration succeeded in finding operating point.

.step vds=436.515832240169 ids=0.158489319246111
Direct Newton iteration succeeded in finding operating point.

.step vds=478.630092322642 ids=0.158489319246111
Direct Newton iteration succeeded in finding operating point.

.step vds=524.807460249776 ids=0.158489319246111
Direct Newton iteration succeeded in finding operating point.

.step vds=575.439937337161 ids=0.158489319246111
Direct Newton iteration succeeded in finding operating point.

.step vds=601 ids=0.158489319246111
Direct Newton iteration succeeded in finding operating point.

.step vds=0.1 ids=0.199526231496888
Direct Newton iteration succeeded in finding operating point.

.step vds=0.109647819614319 ids=0.199526231496888
Direct Newton iteration succeeded in finding operating point.

.step vds=0.120226443461741 ids=0.199526231496888
Direct Newton iteration succeeded in finding operating point.

.step vds=0.131825673855641 ids=0.199526231496888
Direct Newton iteration succeeded in finding operating point.

.step vds=0.144543977074593 ids=0.199526231496888
Direct Newton iteration succeeded in finding operating point.

.step vds=0.158489319246111 ids=0.199526231496888
Direct Newton iteration succeeded in finding operating point.

.step vds=0.173780082874938 ids=0.199526231496888
Direct Newton iteration succeeded in finding operating point.

.step vds=0.190546071796325 ids=0.199526231496888
Direct Newton iteration succeeded in finding operating point.

.step vds=0.208929613085404 ids=0.199526231496888
Direct Newton iteration succeeded in finding operating point.

.step vds=0.229086765276777 ids=0.199526231496888
Direct Newton iteration succeeded in finding operating point.

.step vds=0.251188643150958 ids=0.199526231496888
Direct Newton iteration succeeded in finding operating point.

.step vds=0.275422870333817 ids=0.199526231496888
Direct Newton iteration succeeded in finding operating point.

.step vds=0.301995172040202 ids=0.199526231496888
Direct Newton iteration succeeded in finding operating point.

.step vds=0.331131121482591 ids=0.199526231496888
Direct Newton iteration succeeded in finding operating point.

.step vds=0.363078054770102 ids=0.199526231496888
Direct Newton iteration succeeded in finding operating point.

.step vds=0.398107170553498 ids=0.199526231496888
Direct Newton iteration succeeded in finding operating point.

.step vds=0.436515832240166 ids=0.199526231496888
Direct Newton iteration succeeded in finding operating point.

.step vds=0.478630092322639 ids=0.199526231496888
Direct Newton iteration succeeded in finding operating point.

.step vds=0.524807460249773 ids=0.199526231496888
Direct Newton iteration succeeded in finding operating point.

.step vds=0.575439937337158 ids=0.199526231496888
Direct Newton iteration succeeded in finding operating point.

.step vds=0.630957344480194 ids=0.199526231496888
Direct Newton iteration succeeded in finding operating point.

.step vds=0.691830970918938 ids=0.199526231496888
Direct Newton iteration succeeded in finding operating point.

.step vds=0.758577575029185 ids=0.199526231496888
Direct Newton iteration succeeded in finding operating point.

.step vds=0.831763771102672 ids=0.199526231496888
Direct Newton iteration succeeded in finding operating point.

.step vds=0.912010839355911 ids=0.199526231496888
Direct Newton iteration succeeded in finding operating point.

.step vds=1 ids=0.199526231496888
Direct Newton iteration succeeded in finding operating point.

.step vds=1.09647819614319 ids=0.199526231496888
Direct Newton iteration succeeded in finding operating point.

.step vds=1.20226443461742 ids=0.199526231496888
Direct Newton iteration succeeded in finding operating point.

.step vds=1.31825673855641 ids=0.199526231496888
Direct Newton iteration succeeded in finding operating point.

.step vds=1.44543977074593 ids=0.199526231496888
Direct Newton iteration succeeded in finding operating point.

.step vds=1.58489319246112 ids=0.199526231496888
Direct Newton iteration succeeded in finding operating point.

.step vds=1.73780082874938 ids=0.199526231496888
Direct Newton iteration succeeded in finding operating point.

.step vds=1.90546071796325 ids=0.199526231496888
Direct Newton iteration succeeded in finding operating point.

.step vds=2.08929613085404 ids=0.199526231496888
Direct Newton iteration succeeded in finding operating point.

.step vds=2.29086765276778 ids=0.199526231496888
Direct Newton iteration succeeded in finding operating point.

.step vds=2.51188643150959 ids=0.199526231496888
Direct Newton iteration succeeded in finding operating point.

.step vds=2.75422870333817 ids=0.199526231496888
Direct Newton iteration succeeded in finding operating point.

.step vds=3.01995172040202 ids=0.199526231496888
Direct Newton iteration succeeded in finding operating point.

.step vds=3.31131121482592 ids=0.199526231496888
Direct Newton iteration succeeded in finding operating point.

.step vds=3.63078054770102 ids=0.199526231496888
Direct Newton iteration succeeded in finding operating point.

.step vds=3.98107170553498 ids=0.199526231496888
Direct Newton iteration succeeded in finding operating point.

.step vds=4.36515832240167 ids=0.199526231496888
Direct Newton iteration succeeded in finding operating point.

.step vds=4.7863009232264 ids=0.199526231496888
Direct Newton iteration succeeded in finding operating point.

.step vds=5.24807460249774 ids=0.199526231496888
Direct Newton iteration succeeded in finding operating point.

.step vds=5.75439937337159 ids=0.199526231496888
Direct Newton iteration succeeded in finding operating point.

.step vds=6.30957344480195 ids=0.199526231496888
Direct Newton iteration succeeded in finding operating point.

.step vds=6.91830970918939 ids=0.199526231496888
Direct Newton iteration succeeded in finding operating point.

.step vds=7.58577575029186 ids=0.199526231496888
Direct Newton iteration succeeded in finding operating point.

.step vds=8.31763771102674 ids=0.199526231496888
Direct Newton iteration succeeded in finding operating point.

.step vds=9.12010839355913 ids=0.199526231496888
Direct Newton iteration succeeded in finding operating point.

.step vds=10 ids=0.199526231496888
Direct Newton iteration succeeded in finding operating point.

.step vds=10.9647819614319 ids=0.199526231496888
Direct Newton iteration succeeded in finding operating point.

.step vds=12.0226443461742 ids=0.199526231496888
Direct Newton iteration succeeded in finding operating point.

.step vds=13.1825673855641 ids=0.199526231496888
Direct Newton iteration succeeded in finding operating point.

.step vds=14.4543977074593 ids=0.199526231496888
Direct Newton iteration succeeded in finding operating point.

.step vds=15.8489319246112 ids=0.199526231496888
Direct Newton iteration succeeded in finding operating point.

.step vds=17.3780082874938 ids=0.199526231496888
Direct Newton iteration succeeded in finding operating point.

.step vds=19.0546071796326 ids=0.199526231496888
Direct Newton iteration succeeded in finding operating point.

.step vds=20.8929613085405 ids=0.199526231496888
Direct Newton iteration succeeded in finding operating point.

.step vds=22.9086765276778 ids=0.199526231496888
Direct Newton iteration succeeded in finding operating point.

.step vds=25.1188643150959 ids=0.199526231496888
Direct Newton iteration succeeded in finding operating point.

.step vds=27.5422870333818 ids=0.199526231496888
Direct Newton iteration succeeded in finding operating point.

.step vds=30.1995172040203 ids=0.199526231496888
Direct Newton iteration succeeded in finding operating point.

.step vds=33.1131121482593 ids=0.199526231496888
Direct Newton iteration succeeded in finding operating point.

.step vds=36.3078054770103 ids=0.199526231496888
Direct Newton iteration succeeded in finding operating point.

.step vds=39.8107170553499 ids=0.199526231496888
Direct Newton iteration succeeded in finding operating point.

.step vds=43.6515832240168 ids=0.199526231496888
Direct Newton iteration succeeded in finding operating point.

.step vds=47.8630092322641 ids=0.199526231496888
Direct Newton iteration succeeded in finding operating point.

.step vds=52.4807460249775 ids=0.199526231496888
Direct Newton iteration succeeded in finding operating point.

.step vds=57.543993733716 ids=0.199526231496888
Direct Newton iteration succeeded in finding operating point.

.step vds=63.0957344480196 ids=0.199526231496888
Direct Newton iteration succeeded in finding operating point.

.step vds=69.183097091894 ids=0.199526231496888
Direct Newton iteration succeeded in finding operating point.

.step vds=75.8577575029188 ids=0.199526231496888
Direct Newton iteration succeeded in finding operating point.

.step vds=83.1763771102675 ids=0.199526231496888
Direct Newton iteration succeeded in finding operating point.

.step vds=91.2010839355915 ids=0.199526231496888
Direct Newton iteration succeeded in finding operating point.

.step vds=100.000000000001 ids=0.199526231496888
Direct Newton iteration succeeded in finding operating point.

.step vds=109.647819614319 ids=0.199526231496888
Direct Newton iteration succeeded in finding operating point.

.step vds=120.226443461742 ids=0.199526231496888
Direct Newton iteration succeeded in finding operating point.

.step vds=131.825673855641 ids=0.199526231496888
Direct Newton iteration succeeded in finding operating point.

.step vds=144.543977074594 ids=0.199526231496888
Direct Newton iteration succeeded in finding operating point.

.step vds=158.489319246112 ids=0.199526231496888
Direct Newton iteration succeeded in finding operating point.

.step vds=173.780082874939 ids=0.199526231496888
Direct Newton iteration succeeded in finding operating point.

.step vds=190.546071796326 ids=0.199526231496888
Direct Newton iteration succeeded in finding operating point.

.step vds=208.929613085405 ids=0.199526231496888
Direct Newton iteration succeeded in finding operating point.

.step vds=229.086765276779 ids=0.199526231496888
Direct Newton iteration succeeded in finding operating point.

.step vds=251.18864315096 ids=0.199526231496888
Direct Newton iteration succeeded in finding operating point.

.step vds=275.422870333818 ids=0.199526231496888
Direct Newton iteration succeeded in finding operating point.

.step vds=301.995172040203 ids=0.199526231496888
Direct Newton iteration succeeded in finding operating point.

.step vds=331.131121482593 ids=0.199526231496888
Direct Newton iteration succeeded in finding operating point.

.step vds=363.078054770104 ids=0.199526231496888
Direct Newton iteration succeeded in finding operating point.

.step vds=398.1071705535 ids=0.199526231496888
Direct Newton iteration succeeded in finding operating point.

.step vds=436.515832240169 ids=0.199526231496888
Direct Newton iteration succeeded in finding operating point.

.step vds=478.630092322642 ids=0.199526231496888
Direct Newton iteration succeeded in finding operating point.

.step vds=524.807460249776 ids=0.199526231496888
Direct Newton iteration succeeded in finding operating point.

.step vds=575.439937337161 ids=0.199526231496888
Direct Newton iteration succeeded in finding operating point.

.step vds=601 ids=0.199526231496888
Direct Newton iteration succeeded in finding operating point.

.step vds=0.1 ids=0.251188643150958
Direct Newton iteration succeeded in finding operating point.

.step vds=0.109647819614319 ids=0.251188643150958
Direct Newton iteration succeeded in finding operating point.

.step vds=0.120226443461741 ids=0.251188643150958
Direct Newton iteration succeeded in finding operating point.

.step vds=0.131825673855641 ids=0.251188643150958
Direct Newton iteration succeeded in finding operating point.

.step vds=0.144543977074593 ids=0.251188643150958
Direct Newton iteration succeeded in finding operating point.

.step vds=0.158489319246111 ids=0.251188643150958
Direct Newton iteration succeeded in finding operating point.

.step vds=0.173780082874938 ids=0.251188643150958
Direct Newton iteration succeeded in finding operating point.

.step vds=0.190546071796325 ids=0.251188643150958
Direct Newton iteration succeeded in finding operating point.

.step vds=0.208929613085404 ids=0.251188643150958
Direct Newton iteration succeeded in finding operating point.

.step vds=0.229086765276777 ids=0.251188643150958
Direct Newton iteration succeeded in finding operating point.

.step vds=0.251188643150958 ids=0.251188643150958
Direct Newton iteration succeeded in finding operating point.

.step vds=0.275422870333817 ids=0.251188643150958
Direct Newton iteration succeeded in finding operating point.

.step vds=0.301995172040202 ids=0.251188643150958
Direct Newton iteration succeeded in finding operating point.

.step vds=0.331131121482591 ids=0.251188643150958
Direct Newton iteration succeeded in finding operating point.

.step vds=0.363078054770102 ids=0.251188643150958
Direct Newton iteration succeeded in finding operating point.

.step vds=0.398107170553498 ids=0.251188643150958
Direct Newton iteration succeeded in finding operating point.

.step vds=0.436515832240166 ids=0.251188643150958
Direct Newton iteration succeeded in finding operating point.

.step vds=0.478630092322639 ids=0.251188643150958
Direct Newton iteration succeeded in finding operating point.

.step vds=0.524807460249773 ids=0.251188643150958
Direct Newton iteration succeeded in finding operating point.

.step vds=0.575439937337158 ids=0.251188643150958
Direct Newton iteration succeeded in finding operating point.

.step vds=0.630957344480194 ids=0.251188643150958
Direct Newton iteration succeeded in finding operating point.

.step vds=0.691830970918938 ids=0.251188643150958
Direct Newton iteration succeeded in finding operating point.

.step vds=0.758577575029185 ids=0.251188643150958
Direct Newton iteration succeeded in finding operating point.

.step vds=0.831763771102672 ids=0.251188643150958
Direct Newton iteration succeeded in finding operating point.

.step vds=0.912010839355911 ids=0.251188643150958
Direct Newton iteration succeeded in finding operating point.

.step vds=1 ids=0.251188643150958
Direct Newton iteration succeeded in finding operating point.

.step vds=1.09647819614319 ids=0.251188643150958
Direct Newton iteration succeeded in finding operating point.

.step vds=1.20226443461742 ids=0.251188643150958
Direct Newton iteration succeeded in finding operating point.

.step vds=1.31825673855641 ids=0.251188643150958
Direct Newton iteration succeeded in finding operating point.

.step vds=1.44543977074593 ids=0.251188643150958
Direct Newton iteration succeeded in finding operating point.

.step vds=1.58489319246112 ids=0.251188643150958
Direct Newton iteration succeeded in finding operating point.

.step vds=1.73780082874938 ids=0.251188643150958
Direct Newton iteration succeeded in finding operating point.

.step vds=1.90546071796325 ids=0.251188643150958
Direct Newton iteration succeeded in finding operating point.

.step vds=2.08929613085404 ids=0.251188643150958
Direct Newton iteration succeeded in finding operating point.

.step vds=2.29086765276778 ids=0.251188643150958
Direct Newton iteration succeeded in finding operating point.

.step vds=2.51188643150959 ids=0.251188643150958
Direct Newton iteration succeeded in finding operating point.

.step vds=2.75422870333817 ids=0.251188643150958
Direct Newton iteration succeeded in finding operating point.

.step vds=3.01995172040202 ids=0.251188643150958
Direct Newton iteration succeeded in finding operating point.

.step vds=3.31131121482592 ids=0.251188643150958
Direct Newton iteration succeeded in finding operating point.

.step vds=3.63078054770102 ids=0.251188643150958
Direct Newton iteration succeeded in finding operating point.

.step vds=3.98107170553498 ids=0.251188643150958
Direct Newton iteration succeeded in finding operating point.

.step vds=4.36515832240167 ids=0.251188643150958
Direct Newton iteration succeeded in finding operating point.

.step vds=4.7863009232264 ids=0.251188643150958
Direct Newton iteration succeeded in finding operating point.

.step vds=5.24807460249774 ids=0.251188643150958
Direct Newton iteration succeeded in finding operating point.

.step vds=5.75439937337159 ids=0.251188643150958
Direct Newton iteration succeeded in finding operating point.

.step vds=6.30957344480195 ids=0.251188643150958
Direct Newton iteration succeeded in finding operating point.

.step vds=6.91830970918939 ids=0.251188643150958
Direct Newton iteration succeeded in finding operating point.

.step vds=7.58577575029186 ids=0.251188643150958
Direct Newton iteration succeeded in finding operating point.

.step vds=8.31763771102674 ids=0.251188643150958
Direct Newton iteration succeeded in finding operating point.

.step vds=9.12010839355913 ids=0.251188643150958
Direct Newton iteration succeeded in finding operating point.

.step vds=10 ids=0.251188643150958
Direct Newton iteration succeeded in finding operating point.

.step vds=10.9647819614319 ids=0.251188643150958
Direct Newton iteration succeeded in finding operating point.

.step vds=12.0226443461742 ids=0.251188643150958
Direct Newton iteration succeeded in finding operating point.

.step vds=13.1825673855641 ids=0.251188643150958
Direct Newton iteration succeeded in finding operating point.

.step vds=14.4543977074593 ids=0.251188643150958
Direct Newton iteration succeeded in finding operating point.

.step vds=15.8489319246112 ids=0.251188643150958
Direct Newton iteration succeeded in finding operating point.

.step vds=17.3780082874938 ids=0.251188643150958
Direct Newton iteration succeeded in finding operating point.

.step vds=19.0546071796326 ids=0.251188643150958
Direct Newton iteration succeeded in finding operating point.

.step vds=20.8929613085405 ids=0.251188643150958
Direct Newton iteration succeeded in finding operating point.

.step vds=22.9086765276778 ids=0.251188643150958
Direct Newton iteration succeeded in finding operating point.

.step vds=25.1188643150959 ids=0.251188643150958
Direct Newton iteration succeeded in finding operating point.

.step vds=27.5422870333818 ids=0.251188643150958
Direct Newton iteration succeeded in finding operating point.

.step vds=30.1995172040203 ids=0.251188643150958
Direct Newton iteration succeeded in finding operating point.

.step vds=33.1131121482593 ids=0.251188643150958
Direct Newton iteration succeeded in finding operating point.

.step vds=36.3078054770103 ids=0.251188643150958
Direct Newton iteration succeeded in finding operating point.

.step vds=39.8107170553499 ids=0.251188643150958
Direct Newton iteration succeeded in finding operating point.

.step vds=43.6515832240168 ids=0.251188643150958
Direct Newton iteration succeeded in finding operating point.

.step vds=47.8630092322641 ids=0.251188643150958
Direct Newton iteration succeeded in finding operating point.

.step vds=52.4807460249775 ids=0.251188643150958
Direct Newton iteration succeeded in finding operating point.

.step vds=57.543993733716 ids=0.251188643150958
Direct Newton iteration succeeded in finding operating point.

.step vds=63.0957344480196 ids=0.251188643150958
Direct Newton iteration succeeded in finding operating point.

.step vds=69.183097091894 ids=0.251188643150958
Direct Newton iteration succeeded in finding operating point.

.step vds=75.8577575029188 ids=0.251188643150958
Direct Newton iteration succeeded in finding operating point.

.step vds=83.1763771102675 ids=0.251188643150958
Direct Newton iteration succeeded in finding operating point.

.step vds=91.2010839355915 ids=0.251188643150958
Direct Newton iteration succeeded in finding operating point.

.step vds=100.000000000001 ids=0.251188643150958
Direct Newton iteration succeeded in finding operating point.

.step vds=109.647819614319 ids=0.251188643150958
Direct Newton iteration succeeded in finding operating point.

.step vds=120.226443461742 ids=0.251188643150958
Direct Newton iteration succeeded in finding operating point.

.step vds=131.825673855641 ids=0.251188643150958
Direct Newton iteration succeeded in finding operating point.

.step vds=144.543977074594 ids=0.251188643150958
Direct Newton iteration succeeded in finding operating point.

.step vds=158.489319246112 ids=0.251188643150958
Direct Newton iteration succeeded in finding operating point.

.step vds=173.780082874939 ids=0.251188643150958
Direct Newton iteration succeeded in finding operating point.

.step vds=190.546071796326 ids=0.251188643150958
Direct Newton iteration succeeded in finding operating point.

.step vds=208.929613085405 ids=0.251188643150958
Direct Newton iteration succeeded in finding operating point.

.step vds=229.086765276779 ids=0.251188643150958
Direct Newton iteration succeeded in finding operating point.

.step vds=251.18864315096 ids=0.251188643150958
Direct Newton iteration succeeded in finding operating point.

.step vds=275.422870333818 ids=0.251188643150958
Direct Newton iteration succeeded in finding operating point.

.step vds=301.995172040203 ids=0.251188643150958
Direct Newton iteration succeeded in finding operating point.

.step vds=331.131121482593 ids=0.251188643150958
Direct Newton iteration succeeded in finding operating point.

.step vds=363.078054770104 ids=0.251188643150958
Direct Newton iteration succeeded in finding operating point.

.step vds=398.1071705535 ids=0.251188643150958
Direct Newton iteration succeeded in finding operating point.

.step vds=436.515832240169 ids=0.251188643150958
Direct Newton iteration succeeded in finding operating point.

.step vds=478.630092322642 ids=0.251188643150958
Direct Newton iteration succeeded in finding operating point.

.step vds=524.807460249776 ids=0.251188643150958
Direct Newton iteration succeeded in finding operating point.

.step vds=575.439937337161 ids=0.251188643150958
Direct Newton iteration succeeded in finding operating point.

.step vds=601 ids=0.251188643150958
Direct Newton iteration succeeded in finding operating point.

.step vds=0.1 ids=0.316227766016838
Direct Newton iteration succeeded in finding operating point.

.step vds=0.109647819614319 ids=0.316227766016838
Direct Newton iteration succeeded in finding operating point.

.step vds=0.120226443461741 ids=0.316227766016838
Direct Newton iteration succeeded in finding operating point.

.step vds=0.131825673855641 ids=0.316227766016838
Direct Newton iteration succeeded in finding operating point.

.step vds=0.144543977074593 ids=0.316227766016838
Direct Newton iteration succeeded in finding operating point.

.step vds=0.158489319246111 ids=0.316227766016838
Direct Newton iteration succeeded in finding operating point.

.step vds=0.173780082874938 ids=0.316227766016838
Direct Newton iteration succeeded in finding operating point.

.step vds=0.190546071796325 ids=0.316227766016838
Direct Newton iteration succeeded in finding operating point.

.step vds=0.208929613085404 ids=0.316227766016838
Direct Newton iteration succeeded in finding operating point.

.step vds=0.229086765276777 ids=0.316227766016838
Direct Newton iteration succeeded in finding operating point.

.step vds=0.251188643150958 ids=0.316227766016838
Direct Newton iteration succeeded in finding operating point.

.step vds=0.275422870333817 ids=0.316227766016838
Direct Newton iteration succeeded in finding operating point.

.step vds=0.301995172040202 ids=0.316227766016838
Direct Newton iteration succeeded in finding operating point.

.step vds=0.331131121482591 ids=0.316227766016838
Direct Newton iteration succeeded in finding operating point.

.step vds=0.363078054770102 ids=0.316227766016838
Direct Newton iteration succeeded in finding operating point.

.step vds=0.398107170553498 ids=0.316227766016838
Direct Newton iteration succeeded in finding operating point.

.step vds=0.436515832240166 ids=0.316227766016838
Direct Newton iteration succeeded in finding operating point.

.step vds=0.478630092322639 ids=0.316227766016838
Direct Newton iteration succeeded in finding operating point.

.step vds=0.524807460249773 ids=0.316227766016838
Direct Newton iteration succeeded in finding operating point.

.step vds=0.575439937337158 ids=0.316227766016838
Direct Newton iteration succeeded in finding operating point.

.step vds=0.630957344480194 ids=0.316227766016838
Direct Newton iteration succeeded in finding operating point.

.step vds=0.691830970918938 ids=0.316227766016838
Direct Newton iteration succeeded in finding operating point.

.step vds=0.758577575029185 ids=0.316227766016838
Direct Newton iteration succeeded in finding operating point.

.step vds=0.831763771102672 ids=0.316227766016838
Direct Newton iteration succeeded in finding operating point.

.step vds=0.912010839355911 ids=0.316227766016838
Direct Newton iteration succeeded in finding operating point.

.step vds=1 ids=0.316227766016838
Direct Newton iteration succeeded in finding operating point.

.step vds=1.09647819614319 ids=0.316227766016838
Direct Newton iteration succeeded in finding operating point.

.step vds=1.20226443461742 ids=0.316227766016838
Direct Newton iteration succeeded in finding operating point.

.step vds=1.31825673855641 ids=0.316227766016838
Direct Newton iteration succeeded in finding operating point.

.step vds=1.44543977074593 ids=0.316227766016838
Direct Newton iteration succeeded in finding operating point.

.step vds=1.58489319246112 ids=0.316227766016838
Direct Newton iteration succeeded in finding operating point.

.step vds=1.73780082874938 ids=0.316227766016838
Direct Newton iteration succeeded in finding operating point.

.step vds=1.90546071796325 ids=0.316227766016838
Direct Newton iteration succeeded in finding operating point.

.step vds=2.08929613085404 ids=0.316227766016838
Direct Newton iteration succeeded in finding operating point.

.step vds=2.29086765276778 ids=0.316227766016838
Direct Newton iteration succeeded in finding operating point.

.step vds=2.51188643150959 ids=0.316227766016838
Direct Newton iteration succeeded in finding operating point.

.step vds=2.75422870333817 ids=0.316227766016838
Direct Newton iteration succeeded in finding operating point.

.step vds=3.01995172040202 ids=0.316227766016838
Direct Newton iteration succeeded in finding operating point.

.step vds=3.31131121482592 ids=0.316227766016838
Direct Newton iteration succeeded in finding operating point.

.step vds=3.63078054770102 ids=0.316227766016838
Direct Newton iteration succeeded in finding operating point.

.step vds=3.98107170553498 ids=0.316227766016838
Direct Newton iteration succeeded in finding operating point.

.step vds=4.36515832240167 ids=0.316227766016838
Direct Newton iteration succeeded in finding operating point.

.step vds=4.7863009232264 ids=0.316227766016838
Direct Newton iteration succeeded in finding operating point.

.step vds=5.24807460249774 ids=0.316227766016838
Direct Newton iteration succeeded in finding operating point.

.step vds=5.75439937337159 ids=0.316227766016838
Direct Newton iteration succeeded in finding operating point.

.step vds=6.30957344480195 ids=0.316227766016838
Direct Newton iteration succeeded in finding operating point.

.step vds=6.91830970918939 ids=0.316227766016838
Direct Newton iteration succeeded in finding operating point.

.step vds=7.58577575029186 ids=0.316227766016838
Direct Newton iteration succeeded in finding operating point.

.step vds=8.31763771102674 ids=0.316227766016838
Direct Newton iteration succeeded in finding operating point.

.step vds=9.12010839355913 ids=0.316227766016838
Direct Newton iteration succeeded in finding operating point.

.step vds=10 ids=0.316227766016838
Direct Newton iteration succeeded in finding operating point.

.step vds=10.9647819614319 ids=0.316227766016838
Direct Newton iteration succeeded in finding operating point.

.step vds=12.0226443461742 ids=0.316227766016838
Direct Newton iteration succeeded in finding operating point.

.step vds=13.1825673855641 ids=0.316227766016838
Direct Newton iteration succeeded in finding operating point.

.step vds=14.4543977074593 ids=0.316227766016838
Direct Newton iteration succeeded in finding operating point.

.step vds=15.8489319246112 ids=0.316227766016838
Direct Newton iteration succeeded in finding operating point.

.step vds=17.3780082874938 ids=0.316227766016838
Direct Newton iteration succeeded in finding operating point.

.step vds=19.0546071796326 ids=0.316227766016838
Direct Newton iteration succeeded in finding operating point.

.step vds=20.8929613085405 ids=0.316227766016838
Direct Newton iteration succeeded in finding operating point.

.step vds=22.9086765276778 ids=0.316227766016838
Direct Newton iteration succeeded in finding operating point.

.step vds=25.1188643150959 ids=0.316227766016838
Direct Newton iteration succeeded in finding operating point.

.step vds=27.5422870333818 ids=0.316227766016838
Direct Newton iteration succeeded in finding operating point.

.step vds=30.1995172040203 ids=0.316227766016838
Direct Newton iteration succeeded in finding operating point.

.step vds=33.1131121482593 ids=0.316227766016838
Direct Newton iteration succeeded in finding operating point.

.step vds=36.3078054770103 ids=0.316227766016838
Direct Newton iteration succeeded in finding operating point.

.step vds=39.8107170553499 ids=0.316227766016838
Direct Newton iteration succeeded in finding operating point.

.step vds=43.6515832240168 ids=0.316227766016838
Direct Newton iteration succeeded in finding operating point.

.step vds=47.8630092322641 ids=0.316227766016838
Direct Newton iteration succeeded in finding operating point.

.step vds=52.4807460249775 ids=0.316227766016838
Direct Newton iteration succeeded in finding operating point.

.step vds=57.543993733716 ids=0.316227766016838
Direct Newton iteration succeeded in finding operating point.

.step vds=63.0957344480196 ids=0.316227766016838
Direct Newton iteration succeeded in finding operating point.

.step vds=69.183097091894 ids=0.316227766016838
Direct Newton iteration succeeded in finding operating point.

.step vds=75.8577575029188 ids=0.316227766016838
Direct Newton iteration succeeded in finding operating point.

.step vds=83.1763771102675 ids=0.316227766016838
Direct Newton iteration succeeded in finding operating point.

.step vds=91.2010839355915 ids=0.316227766016838
Direct Newton iteration succeeded in finding operating point.

.step vds=100.000000000001 ids=0.316227766016838
Direct Newton iteration succeeded in finding operating point.

.step vds=109.647819614319 ids=0.316227766016838
Direct Newton iteration succeeded in finding operating point.

.step vds=120.226443461742 ids=0.316227766016838
Direct Newton iteration succeeded in finding operating point.

.step vds=131.825673855641 ids=0.316227766016838
Direct Newton iteration succeeded in finding operating point.

.step vds=144.543977074594 ids=0.316227766016838
Direct Newton iteration succeeded in finding operating point.

.step vds=158.489319246112 ids=0.316227766016838
Direct Newton iteration succeeded in finding operating point.

.step vds=173.780082874939 ids=0.316227766016838
Direct Newton iteration succeeded in finding operating point.

.step vds=190.546071796326 ids=0.316227766016838
Direct Newton iteration succeeded in finding operating point.

.step vds=208.929613085405 ids=0.316227766016838
Direct Newton iteration succeeded in finding operating point.

.step vds=229.086765276779 ids=0.316227766016838
Direct Newton iteration succeeded in finding operating point.

.step vds=251.18864315096 ids=0.316227766016838
Direct Newton iteration succeeded in finding operating point.

.step vds=275.422870333818 ids=0.316227766016838
Direct Newton iteration succeeded in finding operating point.

.step vds=301.995172040203 ids=0.316227766016838
Direct Newton iteration succeeded in finding operating point.

.step vds=331.131121482593 ids=0.316227766016838
Direct Newton iteration succeeded in finding operating point.

.step vds=363.078054770104 ids=0.316227766016838
Direct Newton iteration succeeded in finding operating point.

.step vds=398.1071705535 ids=0.316227766016838
Direct Newton iteration succeeded in finding operating point.

.step vds=436.515832240169 ids=0.316227766016838
Direct Newton iteration succeeded in finding operating point.

.step vds=478.630092322642 ids=0.316227766016838
Direct Newton iteration succeeded in finding operating point.

.step vds=524.807460249776 ids=0.316227766016838
Direct Newton iteration succeeded in finding operating point.

.step vds=575.439937337161 ids=0.316227766016838
Direct Newton iteration succeeded in finding operating point.

.step vds=601 ids=0.316227766016838
Direct Newton iteration succeeded in finding operating point.

.step vds=0.1 ids=0.398107170553497
Direct Newton iteration succeeded in finding operating point.

.step vds=0.109647819614319 ids=0.398107170553497
Direct Newton iteration succeeded in finding operating point.

.step vds=0.120226443461741 ids=0.398107170553497
Direct Newton iteration succeeded in finding operating point.

.step vds=0.131825673855641 ids=0.398107170553497
Direct Newton iteration succeeded in finding operating point.

.step vds=0.144543977074593 ids=0.398107170553497
Direct Newton iteration succeeded in finding operating point.

.step vds=0.158489319246111 ids=0.398107170553497
Direct Newton iteration succeeded in finding operating point.

.step vds=0.173780082874938 ids=0.398107170553497
Direct Newton iteration succeeded in finding operating point.

.step vds=0.190546071796325 ids=0.398107170553497
Direct Newton iteration succeeded in finding operating point.

.step vds=0.208929613085404 ids=0.398107170553497
Direct Newton iteration succeeded in finding operating point.

.step vds=0.229086765276777 ids=0.398107170553497
Direct Newton iteration succeeded in finding operating point.

.step vds=0.251188643150958 ids=0.398107170553497
Direct Newton iteration succeeded in finding operating point.

.step vds=0.275422870333817 ids=0.398107170553497
Direct Newton iteration succeeded in finding operating point.

.step vds=0.301995172040202 ids=0.398107170553497
Direct Newton iteration succeeded in finding operating point.

.step vds=0.331131121482591 ids=0.398107170553497
Direct Newton iteration succeeded in finding operating point.

.step vds=0.363078054770102 ids=0.398107170553497
Direct Newton iteration succeeded in finding operating point.

.step vds=0.398107170553498 ids=0.398107170553497
Direct Newton iteration succeeded in finding operating point.

.step vds=0.436515832240166 ids=0.398107170553497
Direct Newton iteration succeeded in finding operating point.

.step vds=0.478630092322639 ids=0.398107170553497
Direct Newton iteration succeeded in finding operating point.

.step vds=0.524807460249773 ids=0.398107170553497
Direct Newton iteration succeeded in finding operating point.

.step vds=0.575439937337158 ids=0.398107170553497
Direct Newton iteration succeeded in finding operating point.

.step vds=0.630957344480194 ids=0.398107170553497
Direct Newton iteration succeeded in finding operating point.

.step vds=0.691830970918938 ids=0.398107170553497
Direct Newton iteration succeeded in finding operating point.

.step vds=0.758577575029185 ids=0.398107170553497
Direct Newton iteration succeeded in finding operating point.

.step vds=0.831763771102672 ids=0.398107170553497
Direct Newton iteration succeeded in finding operating point.

.step vds=0.912010839355911 ids=0.398107170553497
Direct Newton iteration succeeded in finding operating point.

.step vds=1 ids=0.398107170553497
Direct Newton iteration succeeded in finding operating point.

.step vds=1.09647819614319 ids=0.398107170553497
Direct Newton iteration succeeded in finding operating point.

.step vds=1.20226443461742 ids=0.398107170553497
Direct Newton iteration succeeded in finding operating point.

.step vds=1.31825673855641 ids=0.398107170553497
Direct Newton iteration succeeded in finding operating point.

.step vds=1.44543977074593 ids=0.398107170553497
Direct Newton iteration succeeded in finding operating point.

.step vds=1.58489319246112 ids=0.398107170553497
Direct Newton iteration succeeded in finding operating point.

.step vds=1.73780082874938 ids=0.398107170553497
Direct Newton iteration succeeded in finding operating point.

.step vds=1.90546071796325 ids=0.398107170553497
Direct Newton iteration succeeded in finding operating point.

.step vds=2.08929613085404 ids=0.398107170553497
Direct Newton iteration succeeded in finding operating point.

.step vds=2.29086765276778 ids=0.398107170553497
Direct Newton iteration succeeded in finding operating point.

.step vds=2.51188643150959 ids=0.398107170553497
Direct Newton iteration succeeded in finding operating point.

.step vds=2.75422870333817 ids=0.398107170553497
Direct Newton iteration succeeded in finding operating point.

.step vds=3.01995172040202 ids=0.398107170553497
Direct Newton iteration succeeded in finding operating point.

.step vds=3.31131121482592 ids=0.398107170553497
Direct Newton iteration succeeded in finding operating point.

.step vds=3.63078054770102 ids=0.398107170553497
Direct Newton iteration succeeded in finding operating point.

.step vds=3.98107170553498 ids=0.398107170553497
Direct Newton iteration succeeded in finding operating point.

.step vds=4.36515832240167 ids=0.398107170553497
Direct Newton iteration succeeded in finding operating point.

.step vds=4.7863009232264 ids=0.398107170553497
Direct Newton iteration succeeded in finding operating point.

.step vds=5.24807460249774 ids=0.398107170553497
Direct Newton iteration succeeded in finding operating point.

.step vds=5.75439937337159 ids=0.398107170553497
Direct Newton iteration succeeded in finding operating point.

.step vds=6.30957344480195 ids=0.398107170553497
Direct Newton iteration succeeded in finding operating point.

.step vds=6.91830970918939 ids=0.398107170553497
Direct Newton iteration succeeded in finding operating point.

.step vds=7.58577575029186 ids=0.398107170553497
Direct Newton iteration succeeded in finding operating point.

.step vds=8.31763771102674 ids=0.398107170553497
Direct Newton iteration succeeded in finding operating point.

.step vds=9.12010839355913 ids=0.398107170553497
Direct Newton iteration succeeded in finding operating point.

.step vds=10 ids=0.398107170553497
Direct Newton iteration succeeded in finding operating point.

.step vds=10.9647819614319 ids=0.398107170553497
Direct Newton iteration succeeded in finding operating point.

.step vds=12.0226443461742 ids=0.398107170553497
Direct Newton iteration succeeded in finding operating point.

.step vds=13.1825673855641 ids=0.398107170553497
Direct Newton iteration succeeded in finding operating point.

.step vds=14.4543977074593 ids=0.398107170553497
Direct Newton iteration succeeded in finding operating point.

.step vds=15.8489319246112 ids=0.398107170553497
Direct Newton iteration succeeded in finding operating point.

.step vds=17.3780082874938 ids=0.398107170553497
Direct Newton iteration succeeded in finding operating point.

.step vds=19.0546071796326 ids=0.398107170553497
Direct Newton iteration succeeded in finding operating point.

.step vds=20.8929613085405 ids=0.398107170553497
Direct Newton iteration succeeded in finding operating point.

.step vds=22.9086765276778 ids=0.398107170553497
Direct Newton iteration succeeded in finding operating point.

.step vds=25.1188643150959 ids=0.398107170553497
Direct Newton iteration succeeded in finding operating point.

.step vds=27.5422870333818 ids=0.398107170553497
Direct Newton iteration succeeded in finding operating point.

.step vds=30.1995172040203 ids=0.398107170553497
Direct Newton iteration succeeded in finding operating point.

.step vds=33.1131121482593 ids=0.398107170553497
Direct Newton iteration succeeded in finding operating point.

.step vds=36.3078054770103 ids=0.398107170553497
Direct Newton iteration succeeded in finding operating point.

.step vds=39.8107170553499 ids=0.398107170553497
Direct Newton iteration succeeded in finding operating point.

.step vds=43.6515832240168 ids=0.398107170553497
Direct Newton iteration succeeded in finding operating point.

.step vds=47.8630092322641 ids=0.398107170553497
Direct Newton iteration succeeded in finding operating point.

.step vds=52.4807460249775 ids=0.398107170553497
Direct Newton iteration succeeded in finding operating point.

.step vds=57.543993733716 ids=0.398107170553497
Direct Newton iteration succeeded in finding operating point.

.step vds=63.0957344480196 ids=0.398107170553497
Direct Newton iteration succeeded in finding operating point.

.step vds=69.183097091894 ids=0.398107170553497
Direct Newton iteration succeeded in finding operating point.

.step vds=75.8577575029188 ids=0.398107170553497
Direct Newton iteration succeeded in finding operating point.

.step vds=83.1763771102675 ids=0.398107170553497
Direct Newton iteration succeeded in finding operating point.

.step vds=91.2010839355915 ids=0.398107170553497
Direct Newton iteration succeeded in finding operating point.

.step vds=100.000000000001 ids=0.398107170553497
Direct Newton iteration succeeded in finding operating point.

.step vds=109.647819614319 ids=0.398107170553497
Direct Newton iteration succeeded in finding operating point.

.step vds=120.226443461742 ids=0.398107170553497
Direct Newton iteration succeeded in finding operating point.

.step vds=131.825673855641 ids=0.398107170553497
Direct Newton iteration succeeded in finding operating point.

.step vds=144.543977074594 ids=0.398107170553497
Direct Newton iteration succeeded in finding operating point.

.step vds=158.489319246112 ids=0.398107170553497
Direct Newton iteration succeeded in finding operating point.

.step vds=173.780082874939 ids=0.398107170553497
Direct Newton iteration succeeded in finding operating point.

.step vds=190.546071796326 ids=0.398107170553497
Direct Newton iteration succeeded in finding operating point.

.step vds=208.929613085405 ids=0.398107170553497
Direct Newton iteration succeeded in finding operating point.

.step vds=229.086765276779 ids=0.398107170553497
Direct Newton iteration succeeded in finding operating point.

.step vds=251.18864315096 ids=0.398107170553497
Direct Newton iteration succeeded in finding operating point.

.step vds=275.422870333818 ids=0.398107170553497
Direct Newton iteration succeeded in finding operating point.

.step vds=301.995172040203 ids=0.398107170553497
Direct Newton iteration succeeded in finding operating point.

.step vds=331.131121482593 ids=0.398107170553497
Direct Newton iteration succeeded in finding operating point.

.step vds=363.078054770104 ids=0.398107170553497
Direct Newton iteration succeeded in finding operating point.

.step vds=398.1071705535 ids=0.398107170553497
Direct Newton iteration succeeded in finding operating point.

.step vds=436.515832240169 ids=0.398107170553497
Direct Newton iteration succeeded in finding operating point.

.step vds=478.630092322642 ids=0.398107170553497
Direct Newton iteration succeeded in finding operating point.

.step vds=524.807460249776 ids=0.398107170553497
Direct Newton iteration succeeded in finding operating point.

.step vds=575.439937337161 ids=0.398107170553497
Direct Newton iteration succeeded in finding operating point.

.step vds=601 ids=0.398107170553497
Direct Newton iteration succeeded in finding operating point.

.step vds=0.1 ids=0.501187233627272
Direct Newton iteration succeeded in finding operating point.

.step vds=0.109647819614319 ids=0.501187233627272
Direct Newton iteration succeeded in finding operating point.

.step vds=0.120226443461741 ids=0.501187233627272
Direct Newton iteration succeeded in finding operating point.

.step vds=0.131825673855641 ids=0.501187233627272
Direct Newton iteration succeeded in finding operating point.

.step vds=0.144543977074593 ids=0.501187233627272
Direct Newton iteration succeeded in finding operating point.

.step vds=0.158489319246111 ids=0.501187233627272
Direct Newton iteration succeeded in finding operating point.

.step vds=0.173780082874938 ids=0.501187233627272
Direct Newton iteration succeeded in finding operating point.

.step vds=0.190546071796325 ids=0.501187233627272
Direct Newton iteration succeeded in finding operating point.

.step vds=0.208929613085404 ids=0.501187233627272
Direct Newton iteration succeeded in finding operating point.

.step vds=0.229086765276777 ids=0.501187233627272
Direct Newton iteration succeeded in finding operating point.

.step vds=0.251188643150958 ids=0.501187233627272
Direct Newton iteration succeeded in finding operating point.

.step vds=0.275422870333817 ids=0.501187233627272
Direct Newton iteration succeeded in finding operating point.

.step vds=0.301995172040202 ids=0.501187233627272
Direct Newton iteration succeeded in finding operating point.

.step vds=0.331131121482591 ids=0.501187233627272
Direct Newton iteration succeeded in finding operating point.

.step vds=0.363078054770102 ids=0.501187233627272
Direct Newton iteration succeeded in finding operating point.

.step vds=0.398107170553498 ids=0.501187233627272
Direct Newton iteration succeeded in finding operating point.

.step vds=0.436515832240166 ids=0.501187233627272
Direct Newton iteration succeeded in finding operating point.

.step vds=0.478630092322639 ids=0.501187233627272
Direct Newton iteration succeeded in finding operating point.

.step vds=0.524807460249773 ids=0.501187233627272
Direct Newton iteration succeeded in finding operating point.

.step vds=0.575439937337158 ids=0.501187233627272
Direct Newton iteration succeeded in finding operating point.

.step vds=0.630957344480194 ids=0.501187233627272
Direct Newton iteration succeeded in finding operating point.

.step vds=0.691830970918938 ids=0.501187233627272
Direct Newton iteration succeeded in finding operating point.

.step vds=0.758577575029185 ids=0.501187233627272
Direct Newton iteration succeeded in finding operating point.

.step vds=0.831763771102672 ids=0.501187233627272
Direct Newton iteration succeeded in finding operating point.

.step vds=0.912010839355911 ids=0.501187233627272
Direct Newton iteration succeeded in finding operating point.

.step vds=1 ids=0.501187233627272
Direct Newton iteration succeeded in finding operating point.

.step vds=1.09647819614319 ids=0.501187233627272
Direct Newton iteration succeeded in finding operating point.

.step vds=1.20226443461742 ids=0.501187233627272
Direct Newton iteration succeeded in finding operating point.

.step vds=1.31825673855641 ids=0.501187233627272
Direct Newton iteration succeeded in finding operating point.

.step vds=1.44543977074593 ids=0.501187233627272
Direct Newton iteration succeeded in finding operating point.

.step vds=1.58489319246112 ids=0.501187233627272
Direct Newton iteration succeeded in finding operating point.

.step vds=1.73780082874938 ids=0.501187233627272
Direct Newton iteration succeeded in finding operating point.

.step vds=1.90546071796325 ids=0.501187233627272
Direct Newton iteration succeeded in finding operating point.

.step vds=2.08929613085404 ids=0.501187233627272
Direct Newton iteration succeeded in finding operating point.

.step vds=2.29086765276778 ids=0.501187233627272
Direct Newton iteration succeeded in finding operating point.

.step vds=2.51188643150959 ids=0.501187233627272
Direct Newton iteration succeeded in finding operating point.

.step vds=2.75422870333817 ids=0.501187233627272
Direct Newton iteration succeeded in finding operating point.

.step vds=3.01995172040202 ids=0.501187233627272
Direct Newton iteration succeeded in finding operating point.

.step vds=3.31131121482592 ids=0.501187233627272
Direct Newton iteration succeeded in finding operating point.

.step vds=3.63078054770102 ids=0.501187233627272
Direct Newton iteration succeeded in finding operating point.

.step vds=3.98107170553498 ids=0.501187233627272
Direct Newton iteration succeeded in finding operating point.

.step vds=4.36515832240167 ids=0.501187233627272
Direct Newton iteration succeeded in finding operating point.

.step vds=4.7863009232264 ids=0.501187233627272
Direct Newton iteration succeeded in finding operating point.

.step vds=5.24807460249774 ids=0.501187233627272
Direct Newton iteration succeeded in finding operating point.

.step vds=5.75439937337159 ids=0.501187233627272
Direct Newton iteration succeeded in finding operating point.

.step vds=6.30957344480195 ids=0.501187233627272
Direct Newton iteration succeeded in finding operating point.

.step vds=6.91830970918939 ids=0.501187233627272
Direct Newton iteration succeeded in finding operating point.

.step vds=7.58577575029186 ids=0.501187233627272
Direct Newton iteration succeeded in finding operating point.

.step vds=8.31763771102674 ids=0.501187233627272
Direct Newton iteration succeeded in finding operating point.

.step vds=9.12010839355913 ids=0.501187233627272
Direct Newton iteration succeeded in finding operating point.

.step vds=10 ids=0.501187233627272
Direct Newton iteration succeeded in finding operating point.

.step vds=10.9647819614319 ids=0.501187233627272
Direct Newton iteration succeeded in finding operating point.

.step vds=12.0226443461742 ids=0.501187233627272
Direct Newton iteration succeeded in finding operating point.

.step vds=13.1825673855641 ids=0.501187233627272
Direct Newton iteration succeeded in finding operating point.

[...]
   189	-4.87042529145
   190	-4.86987641502
   191	-4.86937555061
   192	-4.86915515675
   193	-988941.300101
   194	-995447.453419
   195	-959915.289485
   196	-970047.639906
   197	-926356.601992
   198	-938508.776107
   199	-909660.261504
   200	-810008.507204
   201	-742022.165405
   202	-615259.129746
   203	-434460.378707
   204	-260692.58819
   205	-131301.617754
   206	-55284.3657648
   207	-20156.2715094
   208	-6455.28843295
   209	-1839.30552508
   210	-486.375990483
   211	-140.200462119
   212	-55.5708477397
   213	-30.438484316
   214	-20.3908813656
   215	-15.3488168082
   216	-12.4098222555
   217	-10.5164762812
   218	-9.20863793435
   219	-8.25827381649
   220	-7.54081576569
   221	-6.98294642889
   222	-6.53888816248
   223	-6.17867886967
   224	-5.8819096786
   225	-5.63422962523
   226	-5.42526703204
   227	-5.24733078167
   228	-5.09461666843
   229	-4.96265411776
   230	-4.84794905319
   231	-4.74772697208
   232	-4.65976432285
   233	-4.58225676034
   234	-4.5137227204
   235	-4.45292877153
   236	-4.39885464417
   237	-4.35064236294
   238	-4.30755895489
   239	-4.26898215392
   240	-4.23438113607
   241	-4.203295925
   242	-4.17533506611
   243	-4.15014553806
   244	-4.12743278754
   245	-4.1069194806
   246	-4.08839737226
   247	-4.07164280533
   248	-4.05646084532
   249	-4.04270024517
   250	-4.03023230687
   251	-4.01902256433
   252	-4.00886692607
   253	-3.99956200911
   254	-3.99095257144
   255	-3.98338589429
   256	-3.97630167696
   257	-3.97007425799
   258	-3.96430502013
   259	-3.95911318187
   260	-3.95427063947
   261	-3.9499611153
   262	-3.94593183502
   263	-3.94233097979
   264	-3.93911276211
   265	-3.93614650206
   266	-3.93344585871
   267	-3.93091646715
   268	-3.92867124914
   269	-3.92661716173
   270	-3.92472265189
   271	-3.9230590752
   272	-3.9215420788
   273	-3.92017081819
   274	-3.91889106153
   275	-3.91760085187
   276	-3.91657453625
   277	-3.91555102032
   278	-3.91471457795
   279	-3.91396077906
   280	-3.91318530578
   281	-3.91247831843
   282	-3.91183384823
   283	-3.91143916165
   284	-3.91090332067
   285	-3.91041474696
   286	-3.90958379607
   287	-3.90956307241
   288	-3.90938424581
   289	-978776.718026
   290	-973418.713136
   291	-993218.479315
   292	-970723.224295
   293	-966566.097763
   294	-923052.158345
   295	-899976.090836
   296	-830887.694977
   297	-732997.219071
   298	-613151.844355
   299	-438640.637226
   300	-261295.062237
   301	-130862.779468
   302	-55266.2733974
   303	-20155.2190365
   304	-6448.784636
   305	-1831.28220679
   306	-477.327762854
   307	-131.780194086
   308	-49.3488613377
   309	-26.0310330147
   310	-17.0808083785
   311	-12.7049145519
   312	-10.1961288726
   313	-8.59770171103
   314	-7.50211774163
   315	-6.7105002755
   316	-6.11545085762
   317	-5.65430847854
   318	-5.28822377739
   319	-4.99190283375
   320	-4.74820310584
   321	-4.54511808072
   322	-4.37398880235
   323	-4.22842674168
   324	-4.1036110928
   325	-3.99583938351
   326	-3.90222718862
   327	-3.82048304917
   328	-3.74877524171
   329	-3.68561880779
   330	-3.62979643906
   331	-3.58029852811
   332	-3.53628559139
   333	-3.49705221478
   334	-3.46200565282
   335	-3.43062801385
   336	-3.40249289255
   337	-3.37722322064
   338	-3.35449606435
   339	-3.33402277563
   340	-3.31553365496
   341	-3.2988627734
   342	-3.28384477314
   343	-3.27020280514
   344	-3.25791248555
   345	-3.24675793384
   346	-3.23667293112
   347	-3.2274874433
   348	-3.21911509139
   349	-3.21156962348
   350	-3.20475979698
   351	-3.1985213067
   352	-3.19284090789
   353	-3.1877394949
   354	-3.18301878792
   355	-3.17882246513
   356	-3.17492144524
   357	-3.17137730766
   358	-3.16821046736
   359	-3.16528768841
   360	-3.16262259326
   361	-3.16019978437
   362	-3.15798066684
   363	-3.15596719133
   364	-3.15417263646
   365	-3.15249796555
   366	-3.15097617406
   367	-3.14958101702
   368	-3.14833766928
   369	-3.14713796594
   370	-3.14619130798
   371	-3.14519177058
   372	-3.14430224521
   373	-3.14352714788
   374	-3.14280553791
   375	-3.14215645729
   376	-3.14152742608
   377	-3.14110711484
   378	-3.14058402428
   379	-3.14010737875
   380	-3.13967267454
   381	-3.13927612076
   382	-3.13891487211
   383	-3.13858514979
   384	-3.13843990621
   385	-987171.655036
   386	-974691.381817
   387	-969663.06949
   388	-960662.782258
   389	-948298.738929
   390	-952294.49353
   391	-881637.867675
   392	-841927.590227
   393	-734322.629142
   394	-606086.329542
   395	-434263.089025
   396	-261062.055526
   397	-130851.910403
   398	-55314.8058708
   399	-20153.4319756
   400	-6443.53594235
   401	-1824.83453956
   402	-470.013595892
   403	-124.757989758
   404	-44.0804044082
   405	-22.3284801371
   406	-14.3293502837
   407	-10.5247268448
   408	-8.38103340483
   409	-7.03083305414
   410	-6.11277418721
   411	-5.45328751617
   412	-4.95973568142
   413	-4.57855294514
   414	-4.27676356408
   415	-4.03301979903
   416	-3.8329211127
   417	-3.66642055198
   418	-3.52629688975
   419	-3.40723468375
   420	-3.30523454284
   421	-3.21723375953
   422	-3.14084607874
   423	-3.07418319129
   424	-3.0157365432
   425	-2.96428298056
   426	-2.91882318614
   427	-2.87852696038
   428	-2.84270947573
   429	-2.81079024724
   430	-2.78228273818
   431	-2.75676929976
   432	-2.73389459755
   433	-2.71335017368
   434	-2.69487815294
   435	-2.67824168662
   436	-2.6632427072
   437	-2.64970206233
   438	-2.63748326211
   439	-2.62640042429
   440	-2.61640927755
   441	-2.60737808043
   442	-2.59915015944
   443	-2.59166411031
   444	-2.58496083784
   445	-2.5788126722
   446	-2.57326944169
   447	-2.56816582579
   448	-2.56361527058
   449	-2.55944010606
   450	-2.55562334731
   451	-2.55216906224
   452	-2.54905448244
   453	-2.54616445324
   454	-2.54359019378
   455	-2.54120637307
   456	-2.53903521202
   457	-2.53708687863
   458	-2.53531492865
   459	-2.5336650401
   460	-2.53219036359
   461	-2.5308265101
   462	-2.52956734161
   463	-2.52844961634
   464	-2.52746177264
   465	-2.52655323849
   466	-2.5257130659
   467	-2.52488428875
   468	-2.52420030801
   469	-2.52356251788
   470	-2.52294996147
   471	-2.52251030931
   472	-2.52199985994
   473	-2.52153457735
   474	-2.52111021668
   475	-2.5207234417
   476	-2.52037062429
   477	-2.5200490415
   478	-2.51963433642
   479	-2.51961004049
   480	-2.51949243351
   481	-963831.243562
   482	-970264.869241
   483	-966773.567665
   484	-961194.729976
   485	-946103.344516
   486	-924133.834391
   487	-885782.884854
   488	-825836.959064
   489	-740458.79789
   490	-612867.182797
   491	-433128.729497
   492	-261714.932621
   493	-130931.880291
   494	-55227.1236775
   495	-20147.1979779
   496	-6439.3778488
   497	-1819.73724316
   498	-464.112642894
   499	-118.926081193
   500	-39.6202790258
   501	-19.2147422148
   502	-12.0403614596
   503	-8.72604054699
   504	-6.89235560869
   505	-5.75114663032
   506	-4.98158936658
   507	-4.43208208647
   508	-4.02268265637
   509	-3.70759200582
   510	-3.45881456676
   511	-3.25833182412
   512	-3.09404828227
   513	-2.9575546617
   514	-2.84283099904
   515	-2.74545561549
   516	-2.66211287078
   517	-2.59026515708
   518	-2.52794204498
   519	-2.47358567108
   520	-2.4259542112
   521	-2.38404115575
   522	-2.34702556697
   523	-2.31422779916
   524	-2.28508175168
   525	-2.25911634174
   526	-2.23593379386
   527	-2.21518841254
   528	-2.196595459
   529	-2.17989808494
   530	-2.16488842558
   531	-2.15137093158
   532	-2.13918523151
   533	-2.12818900489
   534	-2.11825674119
   535	-2.10927864499
   536	-2.10114574411
   537	-2.09379264075
   538	-2.08713162962
   539	-2.08106472352
   540	-2.07559747762
   541	-2.07060946765
   542	-2.06610382422
   543	-2.06198295855
   544	-2.05828986416
   545	-2.05487440142
   546	-2.05179042139
   547	-2.04901643534
   548	-2.04644071525
   549	-2.04412040307
   550	-2.04203265359
   551	-2.04008823686
   552	-2.03836407699
   553	-2.03674696209
   554	-2.03530729528
   555	-2.0339605673
   556	-2.03277477448
   557	-2.03170822733
   558	-2.03067608658
   559	-2.02973600112
   560	-2.02892512312
   561	-2.02820562039
   562	-2.02754352187
   563	-2.02683884194
   564	-2.0262875293
   565	-2.02575130132
   566	-2.02529240641
   567	-2.02493354007
   568	-2.02451948109
   569	-2.02414192816
   570	-2.02379776086
   571	-2.0234840801
   572	-2.02319780235
   573	-2.02293699536
   574	-2.02269915831
   575	-2.02248217602
   576	-2.02238658118
   577	-959648.216642
   578	-942284.48796
   579	-981631.253787
   580	-957704.399223
   581	-946703.071596
   582	-925566.303073
   583	-887654.464405
   584	-830117.168356
   585	-738917.968771
   586	-604030.36365
   587	-431797.92179
   588	-261689.354609
   589	-131164.33014
   590	-55264.7557671
   591	-20143.8541847
   592	-6435.90802964
   593	-1815.65789361
   594	-459.372863591
   595	-114.103284527
   596	-35.8465510001
   597	-16.5934144203
   598	-10.1344937872
   599	-7.2413353935
   600	-5.67103513556
   601	-4.70584652007
   602	-4.06053128446
   603	-3.60256824248
   604	-3.26293908326
   605	-3.00247172341
   606	-2.79739644744
   607	-2.63250409048
   608	-2.49763366286
   609	-2.3857492857
   610	-2.2918301145
   611	-2.21219996518
   612	-2.14410861485
   613	-2.08545561808
   614	-2.03461364223
   615	-1.99029770264
   616	-1.95148442611
   617	-1.91734705747
   618	-1.88721077632
   619	-1.86051747095
   620	-1.83680503618
   621	-1.81568740166
   622	-1.79683604303
   623	-1.77997088752
   624	-1.76485728723
   625	-1.75128984315
   626	-1.73909234292
   627	-1.72811070342
   628	-1.7182128682
   629	-1.70928207672
   630	-1.70121686642
   631	-1.69392585461
   632	-1.68732842517
   633	-1.68135387863
   634	-1.67594171421
   635	-1.67103764879
   636	-1.66658395234
   637	-1.66254359562
   638	-1.65889011395
   639	-1.65555932328
   640	-1.65252207487
   641	-1.64975100918
   642	-1.64725769104
   643	-1.64498571968
   644	-1.64292688489
   645	-1.64102821462
   646	-1.63933402221
   647	-1.63778041936
   648	-1.63637971411
   649	-1.63506199354
   650	-1.6338791526
   651	-1.63281756142
   652	-1.63183693865
   653	-1.63094961617
   654	-1.63014766984
   655	-1.62938242109
   656	-1.62873465715
   657	-1.62811190828
   658	-1.62758604739
   659	-1.62703113437
   660	-1.62658309584
   661	-1.62615967087
   662	-1.62577399374
   663	-1.6254672337
   664	-1.62514636484
   665	-1.62484016161
   666	-1.62456096979
   667	-1.6243064104
   668	-1.62407430579
   669	-1.62386263158
   670	-1.62359293071
   671	-1.6235704688
   672	-1.62349296421
   673	-904270.258734
   674	-978420.794279
   675	-988591.60708
   676	-922498.491528
   677	-991018.49176
   678	-949293.098967
   679	-894227.60359
   680	-826919.728377
   681	-738702.133765
   682	-603621.328725
   683	-432938.197819
   684	-261112.030108
   685	-130888.632667
   686	-55254.1438296
   687	-20136.962915
   688	-6433.19078579
   689	-1812.46895484
   690	-455.562459815
   691	-110.132940112
   692	-32.6568653226
   693	-14.384373095
   694	-8.54622303709
   695	-6.01513746694
   696	-4.66875264079
   697	-3.85186457051
   698	-3.31051210683
   699	-2.92875284285
   700	-2.64696771237
   701	-2.43164108878
   702	-2.2625887659
   703	-2.12697103166
   704	-2.01625187383
   705	-1.92454497774
   706	-1.84766278264
   707	-1.78254913161
   708	-1.72692283307
   709	-1.67904607425
   710	-1.63757359902
   711	-1.60144640762
   712	-1.56982239259
   713	-1.54202100061
   714	-1.51748835339
   715	-1.49576621661
   716	-1.47647647464
   717	-1.45930133555
   718	-1.44397393772
   719	-1.43026507312
   720	-1.41798282187
   721	-1.40695737161
   722	-1.3970495841
   723	-1.388129062
   724	-1.38008975833
   725	-1.37283755716
   726	-1.36628770416
   727	-1.36036764687
   728	-1.35501186154
   729	-1.35016067149
   730	-1.34577070426
   731	-1.34178688559
   732	-1.3381748415
   733	-1.33489707154
   734	-1.33192195026
   735	-1.32921620892
   736	-1.32676184255
   737	-1.32452755149
   738	-1.32248761381
   739	-1.32064904422
   740	-1.31897340833
   741	-1.31746794465
   742	-1.31607649421
   743	-1.3147920342
   744	-1.31363266669
   745	-1.3125841404
   746	-1.31164893488
   747	-1.3107482083
   748	-1.30996839451
   749	-1.30927591106
   750	-1.30857934878
   751	-1.30800222591
   752	-1.30745625461
   753	-1.30694792721
   754	-1.30651681889
   755	-1.30609332117
   756	-1.30571622157
   757	-1.30534629702
   758	-1.30505951749
   759	-1.30480938563
   760	-1.30453680068
   761	-1.30428839032
   762	-1.30406186941
   763	-1.30385672374
   764	-1.30366715702
   765	-1.30350542742
   766	-1.30333899217
   767	-1.30319622841
   768	-1.30313339123
   769	-984336.03358
   770	-976559.253908
   771	-886088.633666
   772	-997166.15025
   773	-929526.859054
   774	-913103.876587
   775	-890949.867086
   776	-816548.310062
   777	-735873.854609
   778	-603737.107687
   779	-432718.0571
   780	-261229.513622
   781	-130904.604612
   782	-55268.3790157
   783	-20138.2475911
   784	-6431.04390572
   785	-1809.81447912
   786	-452.516923305
   787	-106.878605074
   788	-29.9649600276
   789	-12.520970631
   790	-7.22141026959
   791	-5.00186507924
   792	-3.84596026761
   793	-3.15406573711
   794	-2.69972276259
   795	-2.38140081301
   796	-2.14756976207
   797	-1.96954485651
   798	-1.83018131325
   799	-1.71863952882
   800	-1.6277482447
   801	-1.55258144956
   802	-1.4896483223
   803	-1.4364077716
   804	-1.39096707562
   805	-1.35188854501
   806	-1.31806141882
   807	-1.28861247614
   808	-1.26284705278
   809	-1.24020768672
   810	-1.22023790473
   811	-1.20256271068
   812	-1.18687158624
   813	-1.17290459462
   814	-1.16044321934
   815	-1.14930073809
   816	-1.1393195002
   817	-1.13036152284
   818	-1.12231282477
   819	-1.11506796736
   820	-1.10853768589
   821	-1.10264979947
   822	-1.09733170549
   823	-1.09252600815
   824	-1.08817627153
   825	-1.08423852478
   826	-1.08067424724
   827	-1.07744328442
   828	-1.0745115905
   829	-1.07185152288
   830	-1.06943889833
   831	-1.06724281076
   832	-1.06525533629
   833	-1.06343925336
   834	-1.06179953222
   835	-1.0603012846
   836	-1.05893924211
   837	-1.05770075771
   838	-1.05657190986
   839	-1.05552799128
   840	-1.05460302441
   841	-1.05374283747
   842	-1.05297260301
   843	-1.05226152999
   844	-1.05161582417
   845	-1.05104158251
   846	-1.0505137343
   847	-1.05002248346
   848	-1.04960405306
   849	-1.04917158946
   850	-1.04883873982
   851	-1.04846129334
   852	-1.04817701869
   853	-1.04789103567
   854	-1.04764079717
   855	-1.04743016531
   856	-1.0472090449
   857	-1.04702100182
   858	-1.04687225695
   859	-1.04670390621
   860	-1.04655194712
   861	-1.04641265273
   862	-1.04623723884
   863	-1.04621831454
   864	-1.04607042021
   865	-927515.14356
   866	-947725.657492
   867	-1092438.38196
   868	-913142.358174
   869	-1019675.42037
   870	-921511.223893
   871	-865968.843809
   872	-858730.639224
   873	-732433.654105
   874	-597612.637974
   875	-430743.575025
   876	-261027.249141
   877	-130894.01602
   878	-55263.3126027
   879	-20136.8124046
   880	-6429.37829423
   881	-1807.82404211
   882	-450.079852834
   883	-104.222718562
   884	-27.697832178
   885	-10.9477455083
   886	-6.11530667849
   887	-4.16405083176
   888	-3.17028953177
   889	-2.58378425643
   890	-2.20227612839
   891	-1.93676670654
   892	-1.742690016
   893	-1.59548586645
   894	-1.4805881642
   895	-1.3888438926
   896	-1.31422762355
   897	-1.25261777145
   898	-1.20110291662
   899	-1.15757076809
   900	-1.12045137776
   901	-1.08855531442
   902	-1.06096475371
   903	-1.03695971438
   904	-1.01596911724
   905	-0.997533663354
   906	-0.981278813815
   907	-0.966897036375
   908	-0.954132910634
   909	-0.942775838424
   910	-0.93264579908
   911	-0.923588814896
   912	-0.915478187419
   913	-0.90820021282
   914	-0.901661723703
   915	-0.895777142293
   916	-0.890474597899
   917	-0.88569339102
   918	-0.881376092423
   919	-0.877474157344
   920	-0.87394386144
   921	-0.87074943424
   922	-0.867855134898
   923	-0.865231934161
   924	-0.862852002888
   925	-0.860694697738
   926	-0.858737232484
   927	-0.85695324477
   928	-0.855339392753
   929	-0.853867749785
   930	-0.852536051218
   931	-0.851321354197
   932	-0.850216871482
   933	-0.849211844895
   934	-0.848296787268
   935	-0.847462929712
   936	-0.846711927813
   937	-0.846017826135
   938	-0.845388164059
   939	-0.844807595276
   940	-0.844292309046
   941	-0.843821372105
   942	-0.843379585743
   943	-0.842993307129
   944	-0.842636101255
   945	-0.842312258215
   946	-0.842018825548
   947	-0.84173380692
   948	-0.841475162346
   949	-0.841256557868
   950	-0.84105998631
   951	-0.840882490461
   952	-0.840703085677
   953	-0.840539556986
   954	-0.840428986001
   955	-0.840293044863
   956	-0.84016909143
   957	-0.840056137396
   958	-0.839914600604
   959	-0.839897637956
   960	-0.839779261186
   961	-848231.051413
   962	-1130304.53722
   963	-861069.521466
   964	-958184.720668
   965	-980032.77842
   966	-858311.281206
   967	-841455.269533
   968	-833833.987701
   969	-708192.457687
   970	-604212.902241
   971	-433341.358901
   972	-260188.324192
   973	-130786.813328
   974	-55263.3993176
   975	-20135.4072646
   976	-6427.97640976
   977	-1806.13163998
   978	-448.130862459
   979	-102.063492708
   980	-25.7934608255
   981	-9.61850671688
   982	-5.19091076459
   983	-3.47088589761
   984	-2.61523969883
   985	-2.11763038582
   986	-1.79710403344
   987	-1.57556472889
   988	-1.41444392136
   989	-1.29270370144
   990	-1.19796506346
   991	-1.12249768321
   992	-1.06123806202
   993	-1.01073736906
   994	-0.9685677275
   995	-0.932972485568
   996	-0.902650093116
   997	-0.876615573571
   998	-0.854111833079
   999	-0.834544430851
  1000	-0.817443258199
  1001	-0.802430736765
  1002	-0.78919963117
  1003	-0.777497150228
  1004	-0.76711530816
  1005	-0.757879956421
  1006	-0.749644253395
  1007	-0.742283147951
  1008	-0.735692260213
  1009	-0.729779385783
  1010	-0.724467996674
  1011	-0.719688262159
  1012	-0.715382455141
  1013	-0.71149917398
  1014	-0.707994446207
  1015	-0.704827029042
  1016	-0.701961500981
  1017	-0.699366598074
  1018	-0.697019652939
  1019	-0.694889351134
  1020	-0.692958868076
  1021	-0.691207994555
  1022	-0.689618632159
  1023	-0.688174497259
  1024	-0.686863005915
  1025	-0.685671031878
  1026	-0.684588819985
  1027	-0.68360179045
  1028	-0.682708195106
  1029	-0.6818915781
  1030	-0.681151926968
  1031	-0.680474422299
  1032	-0.679856544668
  1033	-0.679300260862
  1034	-0.678788717878
  1035	-0.678324858764
  1036	-0.677904416815
  1037	-0.677515771984
  1038	-0.677163063382
  1039	-0.67684305469
  1040	-0.676552815507
  1041	-0.676289676779
  1042	-0.676058891826
  1043	-0.675830332192
  1044	-0.675624345812
  1045	-0.675452690426
  1046	-0.675284683751
  1047	-0.675124407654
  1048	-0.675021031458
  1049	-0.674878693612
  1050	-0.674734514054
  1051	-0.674639754097
  1052	-0.674542006898
  1053	-0.674449269893
  1054	-0.674328449151
  1055	-0.674312192986
  1056	-0.674278570561
