LTspice 26.0.1 for Windows
Circuit: Z:\home\giorgio\Documenti\PolitoMaterial\Tesi\PoliTOThesis\Resources\simulations\SlowLeg_driver\Eon_Eoff_circuit.net
Start Time: Thu Mar 26 23:31:39 2026

.step ids=0.1 val=0.1
solver = Normal
Maximum thread count: 8
tnom = 27
temp = 27
method = trap
Instance "u1:x_gd_template:x_ho_stage:M_HO_PMOS": Length shorter than recommended for a level 1 MOSFET.
Instance "u1:x_gd_template:x_ho_stage:M_HO_NMOS": Length shorter than recommended for a level 1 MOSFET.
Instance "u1:x_gd_template:x_lo_stage:M_LO_PMOS": Length shorter than recommended for a level 1 MOSFET.
Instance "u1:x_gd_template:x_lo_stage:M_LO_NMOS": Length shorter than recommended for a level 1 MOSFET.
Instance "u2:Mr": Length shorter than recommended for a level 1 MOSFET.
Instance "u2:Mr": Width narrower than recommended for a level 1 MOSFET.
Instance "u2:M1": Width narrower than recommended for a level 3 MOSFET.
Direct Newton iteration succeeded in finding operating point.

.step ids=0.125892541179417 val=0.1
Direct Newton iteration succeeded in finding operating point.

.step ids=0.158489319246111 val=0.1
Direct Newton iteration succeeded in finding operating point.

.step ids=0.199526231496888 val=0.1
Direct Newton iteration succeeded in finding operating point.

.step ids=0.251188643150958 val=0.1
Direct Newton iteration succeeded in finding operating point.

.step ids=0.316227766016838 val=0.1
Direct Newton iteration succeeded in finding operating point.

.step ids=0.398107170553497 val=0.1
Direct Newton iteration succeeded in finding operating point.

.step ids=0.501187233627272 val=0.1
Direct Newton iteration succeeded in finding operating point.

.step ids=0.630957344480194 val=0.1
Direct Newton iteration succeeded in finding operating point.

.step ids=0.794328234724282 val=0.1
Direct Newton iteration succeeded in finding operating point.

.step ids=1 val=0.1
Direct Newton iteration succeeded in finding operating point.

.step ids=1.25892541179417 val=0.1
Direct Newton iteration succeeded in finding operating point.

.step ids=1.58489319246111 val=0.1
Direct Newton iteration succeeded in finding operating point.

.step ids=1.99526231496888 val=0.1
Direct Newton iteration succeeded in finding operating point.

.step ids=2.51188643150958 val=0.1
Direct Newton iteration succeeded in finding operating point.

.step ids=3.16227766016838 val=0.1
Direct Newton iteration succeeded in finding operating point.

.step ids=3.98107170553498 val=0.1
Direct Newton iteration succeeded in finding operating point.

.step ids=5.01187233627273 val=0.1
Direct Newton iteration succeeded in finding operating point.

.step ids=6.30957344480194 val=0.1
Direct Newton iteration succeeded in finding operating point.

.step ids=7.94328234724282 val=0.1
Direct Newton iteration succeeded in finding operating point.

.step ids=10 val=0.1
Direct Newton iteration succeeded in finding operating point.

.step ids=12.5892541179417 val=0.1
Direct Newton iteration succeeded in finding operating point.

.step ids=15.8489319246112 val=0.1
Direct Newton iteration succeeded in finding operating point.

.step ids=19.9526231496888 val=0.1
Direct Newton iteration succeeded in finding operating point.

.step ids=25.1188643150958 val=0.1
Direct Newton iteration succeeded in finding operating point.

.step ids=31.6227766016838 val=0.1
Direct Newton iteration succeeded in finding operating point.

.step ids=39.8107170553498 val=0.1
Direct Newton iteration succeeded in finding operating point.

.step ids=50.1187233627273 val=0.1
Direct Newton iteration succeeded in finding operating point.

.step ids=63.0957344480194 val=0.1
Direct Newton iteration succeeded in finding operating point.

.step ids=79.4328234724283 val=0.1
Direct Newton iteration succeeded in finding operating point.

.step ids=100 val=0.1
Direct Newton iteration succeeded in finding operating point.

.step ids=125.892541179417 val=0.1
Direct Newton iteration succeeded in finding operating point.

.step ids=158.489319246112 val=0.1
Direct Newton iteration succeeded in finding operating point.

.step ids=199.526231496888 val=0.1
Direct Newton iteration succeeded in finding operating point.

.step ids=251.188643150958 val=0.1
Direct Newton iteration succeeded in finding operating point.

.step ids=316.227766016839 val=0.1
Direct Newton iteration succeeded in finding operating point.

.step ids=398.107170553498 val=0.1
Direct Newton iteration succeeded in finding operating point.

.step ids=500 val=0.1
Direct Newton iteration succeeded in finding operating point.

.step ids=0.1 val=0.109647819614319
Direct Newton iteration succeeded in finding operating point.

.step ids=0.125892541179417 val=0.109647819614319
Direct Newton iteration succeeded in finding operating point.

.step ids=0.158489319246111 val=0.109647819614319
Direct Newton iteration succeeded in finding operating point.

.step ids=0.199526231496888 val=0.109647819614319
Direct Newton iteration succeeded in finding operating point.

.step ids=0.251188643150958 val=0.109647819614319
Direct Newton iteration succeeded in finding operating point.

.step ids=0.316227766016838 val=0.109647819614319
Direct Newton iteration succeeded in finding operating point.

.step ids=0.398107170553497 val=0.109647819614319
Direct Newton iteration succeeded in finding operating point.

.step ids=0.501187233627272 val=0.109647819614319
Direct Newton iteration succeeded in finding operating point.

.step ids=0.630957344480194 val=0.109647819614319
Direct Newton iteration succeeded in finding operating point.

.step ids=0.794328234724282 val=0.109647819614319
Direct Newton iteration succeeded in finding operating point.

.step ids=1 val=0.109647819614319
Direct Newton iteration succeeded in finding operating point.

.step ids=1.25892541179417 val=0.109647819614319
Direct Newton iteration succeeded in finding operating point.

.step ids=1.58489319246111 val=0.109647819614319
Direct Newton iteration succeeded in finding operating point.

.step ids=1.99526231496888 val=0.109647819614319
Direct Newton iteration succeeded in finding operating point.

.step ids=2.51188643150958 val=0.109647819614319
Direct Newton iteration succeeded in finding operating point.

.step ids=3.16227766016838 val=0.109647819614319
Direct Newton iteration succeeded in finding operating point.

.step ids=3.98107170553498 val=0.109647819614319
Direct Newton iteration succeeded in finding operating point.

.step ids=5.01187233627273 val=0.109647819614319
Direct Newton iteration succeeded in finding operating point.

.step ids=6.30957344480194 val=0.109647819614319
Direct Newton iteration succeeded in finding operating point.

.step ids=7.94328234724282 val=0.109647819614319
Direct Newton iteration succeeded in finding operating point.

.step ids=10 val=0.109647819614319
Direct Newton iteration succeeded in finding operating point.

.step ids=12.5892541179417 val=0.109647819614319
Direct Newton iteration succeeded in finding operating point.

.step ids=15.8489319246112 val=0.109647819614319
Direct Newton iteration succeeded in finding operating point.

.step ids=19.9526231496888 val=0.109647819614319
Direct Newton iteration succeeded in finding operating point.

.step ids=25.1188643150958 val=0.109647819614319
Direct Newton iteration succeeded in finding operating point.

.step ids=31.6227766016838 val=0.109647819614319
Direct Newton iteration succeeded in finding operating point.

.step ids=39.8107170553498 val=0.109647819614319
Direct Newton iteration succeeded in finding operating point.

.step ids=50.1187233627273 val=0.109647819614319
Direct Newton iteration succeeded in finding operating point.

.step ids=63.0957344480194 val=0.109647819614319
Direct Newton iteration succeeded in finding operating point.

.step ids=79.4328234724283 val=0.109647819614319
Direct Newton iteration succeeded in finding operating point.

.step ids=100 val=0.109647819614319
Direct Newton iteration succeeded in finding operating point.

.step ids=125.892541179417 val=0.109647819614319
Direct Newton iteration succeeded in finding operating point.

.step ids=158.489319246112 val=0.109647819614319
Direct Newton iteration succeeded in finding operating point.

.step ids=199.526231496888 val=0.109647819614319
Direct Newton iteration succeeded in finding operating point.

.step ids=251.188643150958 val=0.109647819614319
Direct Newton iteration succeeded in finding operating point.

.step ids=316.227766016839 val=0.109647819614319
Direct Newton iteration succeeded in finding operating point.

.step ids=398.107170553498 val=0.109647819614319
Direct Newton iteration succeeded in finding operating point.

.step ids=500 val=0.109647819614319
Direct Newton iteration succeeded in finding operating point.

.step ids=0.1 val=0.120226443461741
Direct Newton iteration succeeded in finding operating point.

.step ids=0.125892541179417 val=0.120226443461741
Direct Newton iteration succeeded in finding operating point.

.step ids=0.158489319246111 val=0.120226443461741
Direct Newton iteration succeeded in finding operating point.

.step ids=0.199526231496888 val=0.120226443461741
Direct Newton iteration succeeded in finding operating point.

.step ids=0.251188643150958 val=0.120226443461741
Direct Newton iteration succeeded in finding operating point.

.step ids=0.316227766016838 val=0.120226443461741
Direct Newton iteration succeeded in finding operating point.

.step ids=0.398107170553497 val=0.120226443461741
Direct Newton iteration succeeded in finding operating point.

.step ids=0.501187233627272 val=0.120226443461741
Direct Newton iteration succeeded in finding operating point.

.step ids=0.630957344480194 val=0.120226443461741
Direct Newton iteration succeeded in finding operating point.

.step ids=0.794328234724282 val=0.120226443461741
Direct Newton iteration succeeded in finding operating point.

.step ids=1 val=0.120226443461741
Direct Newton iteration succeeded in finding operating point.

.step ids=1.25892541179417 val=0.120226443461741
Direct Newton iteration succeeded in finding operating point.

.step ids=1.58489319246111 val=0.120226443461741
Direct Newton iteration succeeded in finding operating point.

.step ids=1.99526231496888 val=0.120226443461741
Direct Newton iteration succeeded in finding operating point.

.step ids=2.51188643150958 val=0.120226443461741
Direct Newton iteration succeeded in finding operating point.

.step ids=3.16227766016838 val=0.120226443461741
Direct Newton iteration succeeded in finding operating point.

.step ids=3.98107170553498 val=0.120226443461741
Direct Newton iteration succeeded in finding operating point.

.step ids=5.01187233627273 val=0.120226443461741
Direct Newton iteration succeeded in finding operating point.

.step ids=6.30957344480194 val=0.120226443461741
Direct Newton iteration succeeded in finding operating point.

.step ids=7.94328234724282 val=0.120226443461741
Direct Newton iteration succeeded in finding operating point.

.step ids=10 val=0.120226443461741
Direct Newton iteration succeeded in finding operating point.

.step ids=12.5892541179417 val=0.120226443461741
Direct Newton iteration succeeded in finding operating point.

.step ids=15.8489319246112 val=0.120226443461741
Direct Newton iteration succeeded in finding operating point.

.step ids=19.9526231496888 val=0.120226443461741
Direct Newton iteration succeeded in finding operating point.

.step ids=25.1188643150958 val=0.120226443461741
Direct Newton iteration succeeded in finding operating point.

.step ids=31.6227766016838 val=0.120226443461741
Direct Newton iteration succeeded in finding operating point.

.step ids=39.8107170553498 val=0.120226443461741
Direct Newton iteration succeeded in finding operating point.

.step ids=50.1187233627273 val=0.120226443461741
Direct Newton iteration succeeded in finding operating point.

.step ids=63.0957344480194 val=0.120226443461741
Direct Newton iteration succeeded in finding operating point.

.step ids=79.4328234724283 val=0.120226443461741
Direct Newton iteration succeeded in finding operating point.

.step ids=100 val=0.120226443461741
Direct Newton iteration succeeded in finding operating point.

.step ids=125.892541179417 val=0.120226443461741
Direct Newton iteration succeeded in finding operating point.

.step ids=158.489319246112 val=0.120226443461741
Direct Newton iteration succeeded in finding operating point.

.step ids=199.526231496888 val=0.120226443461741
Direct Newton iteration succeeded in finding operating point.

.step ids=251.188643150958 val=0.120226443461741
Direct Newton iteration succeeded in finding operating point.

.step ids=316.227766016839 val=0.120226443461741
Direct Newton iteration succeeded in finding operating point.

.step ids=398.107170553498 val=0.120226443461741
Direct Newton iteration succeeded in finding operating point.

.step ids=500 val=0.120226443461741
Direct Newton iteration succeeded in finding operating point.

.step ids=0.1 val=0.131825673855641
Direct Newton iteration succeeded in finding operating point.

.step ids=0.125892541179417 val=0.131825673855641
Direct Newton iteration succeeded in finding operating point.

.step ids=0.158489319246111 val=0.131825673855641
Direct Newton iteration succeeded in finding operating point.

.step ids=0.199526231496888 val=0.131825673855641
Direct Newton iteration succeeded in finding operating point.

.step ids=0.251188643150958 val=0.131825673855641
Direct Newton iteration succeeded in finding operating point.

.step ids=0.316227766016838 val=0.131825673855641
Direct Newton iteration succeeded in finding operating point.

.step ids=0.398107170553497 val=0.131825673855641
Direct Newton iteration succeeded in finding operating point.

.step ids=0.501187233627272 val=0.131825673855641
Direct Newton iteration succeeded in finding operating point.

.step ids=0.630957344480194 val=0.131825673855641
Direct Newton iteration succeeded in finding operating point.

.step ids=0.794328234724282 val=0.131825673855641
Direct Newton iteration succeeded in finding operating point.

.step ids=1 val=0.131825673855641
Direct Newton iteration succeeded in finding operating point.

.step ids=1.25892541179417 val=0.131825673855641
Direct Newton iteration succeeded in finding operating point.

.step ids=1.58489319246111 val=0.131825673855641
Direct Newton iteration succeeded in finding operating point.

.step ids=1.99526231496888 val=0.131825673855641
Direct Newton iteration succeeded in finding operating point.

.step ids=2.51188643150958 val=0.131825673855641
Direct Newton iteration succeeded in finding operating point.

.step ids=3.16227766016838 val=0.131825673855641
Direct Newton iteration succeeded in finding operating point.

.step ids=3.98107170553498 val=0.131825673855641
Direct Newton iteration succeeded in finding operating point.

.step ids=5.01187233627273 val=0.131825673855641
Direct Newton iteration succeeded in finding operating point.

.step ids=6.30957344480194 val=0.131825673855641
Direct Newton iteration succeeded in finding operating point.

.step ids=7.94328234724282 val=0.131825673855641
Direct Newton iteration succeeded in finding operating point.

.step ids=10 val=0.131825673855641
Direct Newton iteration succeeded in finding operating point.

.step ids=12.5892541179417 val=0.131825673855641
Direct Newton iteration succeeded in finding operating point.

.step ids=15.8489319246112 val=0.131825673855641
Direct Newton iteration succeeded in finding operating point.

.step ids=19.9526231496888 val=0.131825673855641
Direct Newton iteration succeeded in finding operating point.

.step ids=25.1188643150958 val=0.131825673855641
Direct Newton iteration succeeded in finding operating point.

.step ids=31.6227766016838 val=0.131825673855641
Direct Newton iteration succeeded in finding operating point.

.step ids=39.8107170553498 val=0.131825673855641
Direct Newton iteration succeeded in finding operating point.

.step ids=50.1187233627273 val=0.131825673855641
Direct Newton iteration succeeded in finding operating point.

.step ids=63.0957344480194 val=0.131825673855641
Direct Newton iteration succeeded in finding operating point.

.step ids=79.4328234724283 val=0.131825673855641
Direct Newton iteration succeeded in finding operating point.

.step ids=100 val=0.131825673855641
Direct Newton iteration succeeded in finding operating point.

.step ids=125.892541179417 val=0.131825673855641
Direct Newton iteration succeeded in finding operating point.

.step ids=158.489319246112 val=0.131825673855641
Direct Newton iteration succeeded in finding operating point.

.step ids=199.526231496888 val=0.131825673855641
Direct Newton iteration succeeded in finding operating point.

.step ids=251.188643150958 val=0.131825673855641
Direct Newton iteration succeeded in finding operating point.

.step ids=316.227766016839 val=0.131825673855641
Direct Newton iteration succeeded in finding operating point.

.step ids=398.107170553498 val=0.131825673855641
Direct Newton iteration succeeded in finding operating point.

.step ids=500 val=0.131825673855641
Direct Newton iteration succeeded in finding operating point.

.step ids=0.1 val=0.144543977074593
Direct Newton iteration succeeded in finding operating point.

.step ids=0.125892541179417 val=0.144543977074593
Direct Newton iteration succeeded in finding operating point.

.step ids=0.158489319246111 val=0.144543977074593
Direct Newton iteration succeeded in finding operating point.

.step ids=0.199526231496888 val=0.144543977074593
Direct Newton iteration succeeded in finding operating point.

.step ids=0.251188643150958 val=0.144543977074593
Direct Newton iteration succeeded in finding operating point.

.step ids=0.316227766016838 val=0.144543977074593
Direct Newton iteration succeeded in finding operating point.

.step ids=0.398107170553497 val=0.144543977074593
Direct Newton iteration succeeded in finding operating point.

.step ids=0.501187233627272 val=0.144543977074593
Direct Newton iteration succeeded in finding operating point.

.step ids=0.630957344480194 val=0.144543977074593
Direct Newton iteration succeeded in finding operating point.

.step ids=0.794328234724282 val=0.144543977074593
Direct Newton iteration succeeded in finding operating point.

.step ids=1 val=0.144543977074593
Direct Newton iteration succeeded in finding operating point.

.step ids=1.25892541179417 val=0.144543977074593
Direct Newton iteration succeeded in finding operating point.

.step ids=1.58489319246111 val=0.144543977074593
Direct Newton iteration succeeded in finding operating point.

.step ids=1.99526231496888 val=0.144543977074593
Direct Newton iteration succeeded in finding operating point.

.step ids=2.51188643150958 val=0.144543977074593
Direct Newton iteration succeeded in finding operating point.

.step ids=3.16227766016838 val=0.144543977074593
Direct Newton iteration succeeded in finding operating point.

.step ids=3.98107170553498 val=0.144543977074593
Direct Newton iteration succeeded in finding operating point.

.step ids=5.01187233627273 val=0.144543977074593
Direct Newton iteration succeeded in finding operating point.

.step ids=6.30957344480194 val=0.144543977074593
Direct Newton iteration succeeded in finding operating point.

.step ids=7.94328234724282 val=0.144543977074593
Direct Newton iteration succeeded in finding operating point.

.step ids=10 val=0.144543977074593
Direct Newton iteration succeeded in finding operating point.

.step ids=12.5892541179417 val=0.144543977074593
Direct Newton iteration succeeded in finding operating point.

.step ids=15.8489319246112 val=0.144543977074593
Direct Newton iteration succeeded in finding operating point.

.step ids=19.9526231496888 val=0.144543977074593
Direct Newton iteration succeeded in finding operating point.

.step ids=25.1188643150958 val=0.144543977074593
Direct Newton iteration succeeded in finding operating point.

.step ids=31.6227766016838 val=0.144543977074593
Direct Newton iteration succeeded in finding operating point.

.step ids=39.8107170553498 val=0.144543977074593
Direct Newton iteration succeeded in finding operating point.

.step ids=50.1187233627273 val=0.144543977074593
Direct Newton iteration succeeded in finding operating point.

.step ids=63.0957344480194 val=0.144543977074593
Direct Newton iteration succeeded in finding operating point.

.step ids=79.4328234724283 val=0.144543977074593
Direct Newton iteration succeeded in finding operating point.

.step ids=100 val=0.144543977074593
Direct Newton iteration succeeded in finding operating point.

.step ids=125.892541179417 val=0.144543977074593
Direct Newton iteration succeeded in finding operating point.

.step ids=158.489319246112 val=0.144543977074593
Direct Newton iteration succeeded in finding operating point.

.step ids=199.526231496888 val=0.144543977074593
Direct Newton iteration succeeded in finding operating point.

.step ids=251.188643150958 val=0.144543977074593
Direct Newton iteration succeeded in finding operating point.

.step ids=316.227766016839 val=0.144543977074593
Direct Newton iteration succeeded in finding operating point.

.step ids=398.107170553498 val=0.144543977074593
Direct Newton iteration succeeded in finding operating point.

.step ids=500 val=0.144543977074593
Direct Newton iteration succeeded in finding operating point.

.step ids=0.1 val=0.158489319246111
Direct Newton iteration succeeded in finding operating point.

.step ids=0.125892541179417 val=0.158489319246111
Direct Newton iteration succeeded in finding operating point.

.step ids=0.158489319246111 val=0.158489319246111
Direct Newton iteration succeeded in finding operating point.

.step ids=0.199526231496888 val=0.158489319246111
Direct Newton iteration succeeded in finding operating point.

.step ids=0.251188643150958 val=0.158489319246111
Direct Newton iteration succeeded in finding operating point.

.step ids=0.316227766016838 val=0.158489319246111
Direct Newton iteration succeeded in finding operating point.

.step ids=0.398107170553497 val=0.158489319246111
Direct Newton iteration succeeded in finding operating point.

.step ids=0.501187233627272 val=0.158489319246111
Direct Newton iteration succeeded in finding operating point.

.step ids=0.630957344480194 val=0.158489319246111
Direct Newton iteration succeeded in finding operating point.

.step ids=0.794328234724282 val=0.158489319246111
Direct Newton iteration succeeded in finding operating point.

.step ids=1 val=0.158489319246111
Direct Newton iteration succeeded in finding operating point.

.step ids=1.25892541179417 val=0.158489319246111
Direct Newton iteration succeeded in finding operating point.

.step ids=1.58489319246111 val=0.158489319246111
Direct Newton iteration succeeded in finding operating point.

.step ids=1.99526231496888 val=0.158489319246111
Direct Newton iteration succeeded in finding operating point.

.step ids=2.51188643150958 val=0.158489319246111
Direct Newton iteration succeeded in finding operating point.

.step ids=3.16227766016838 val=0.158489319246111
Direct Newton iteration succeeded in finding operating point.

.step ids=3.98107170553498 val=0.158489319246111
Direct Newton iteration succeeded in finding operating point.

.step ids=5.01187233627273 val=0.158489319246111
Direct Newton iteration succeeded in finding operating point.

.step ids=6.30957344480194 val=0.158489319246111
Direct Newton iteration succeeded in finding operating point.

.step ids=7.94328234724282 val=0.158489319246111
Direct Newton iteration succeeded in finding operating point.

.step ids=10 val=0.158489319246111
Direct Newton iteration succeeded in finding operating point.

.step ids=12.5892541179417 val=0.158489319246111
Direct Newton iteration succeeded in finding operating point.

.step ids=15.8489319246112 val=0.158489319246111
Direct Newton iteration succeeded in finding operating point.

.step ids=19.9526231496888 val=0.158489319246111
Direct Newton iteration succeeded in finding operating point.

.step ids=25.1188643150958 val=0.158489319246111
Direct Newton iteration succeeded in finding operating point.

.step ids=31.6227766016838 val=0.158489319246111
Direct Newton iteration succeeded in finding operating point.

.step ids=39.8107170553498 val=0.158489319246111
Direct Newton iteration succeeded in finding operating point.

.step ids=50.1187233627273 val=0.158489319246111
Direct Newton iteration succeeded in finding operating point.

.step ids=63.0957344480194 val=0.158489319246111
Direct Newton iteration succeeded in finding operating point.

.step ids=79.4328234724283 val=0.158489319246111
Direct Newton iteration succeeded in finding operating point.

.step ids=100 val=0.158489319246111
Direct Newton iteration succeeded in finding operating point.

.step ids=125.892541179417 val=0.158489319246111
Direct Newton iteration succeeded in finding operating point.

.step ids=158.489319246112 val=0.158489319246111
Direct Newton iteration succeeded in finding operating point.

.step ids=199.526231496888 val=0.158489319246111
Direct Newton iteration succeeded in finding operating point.

.step ids=251.188643150958 val=0.158489319246111
Direct Newton iteration succeeded in finding operating point.

.step ids=316.227766016839 val=0.158489319246111
Direct Newton iteration succeeded in finding operating point.

.step ids=398.107170553498 val=0.158489319246111
Direct Newton iteration succeeded in finding operating point.

.step ids=500 val=0.158489319246111
Direct Newton iteration succeeded in finding operating point.

.step ids=0.1 val=0.173780082874938
Direct Newton iteration succeeded in finding operating point.

.step ids=0.125892541179417 val=0.173780082874938
Direct Newton iteration succeeded in finding operating point.

.step ids=0.158489319246111 val=0.173780082874938
Direct Newton iteration succeeded in finding operating point.

.step ids=0.199526231496888 val=0.173780082874938
Direct Newton iteration succeeded in finding operating point.

.step ids=0.251188643150958 val=0.173780082874938
Direct Newton iteration succeeded in finding operating point.

.step ids=0.316227766016838 val=0.173780082874938
Direct Newton iteration succeeded in finding operating point.

.step ids=0.398107170553497 val=0.173780082874938
Direct Newton iteration succeeded in finding operating point.

.step ids=0.501187233627272 val=0.173780082874938
Direct Newton iteration succeeded in finding operating point.

.step ids=0.630957344480194 val=0.173780082874938
Direct Newton iteration succeeded in finding operating point.

.step ids=0.794328234724282 val=0.173780082874938
Direct Newton iteration succeeded in finding operating point.

.step ids=1 val=0.173780082874938
Direct Newton iteration succeeded in finding operating point.

.step ids=1.25892541179417 val=0.173780082874938
Direct Newton iteration succeeded in finding operating point.

.step ids=1.58489319246111 val=0.173780082874938
Direct Newton iteration succeeded in finding operating point.

.step ids=1.99526231496888 val=0.173780082874938
Direct Newton iteration succeeded in finding operating point.

.step ids=2.51188643150958 val=0.173780082874938
Direct Newton iteration succeeded in finding operating point.

.step ids=3.16227766016838 val=0.173780082874938
Direct Newton iteration succeeded in finding operating point.

.step ids=3.98107170553498 val=0.173780082874938
Direct Newton iteration succeeded in finding operating point.

.step ids=5.01187233627273 val=0.173780082874938
Direct Newton iteration succeeded in finding operating point.

.step ids=6.30957344480194 val=0.173780082874938
Direct Newton iteration succeeded in finding operating point.

.step ids=7.94328234724282 val=0.173780082874938
Direct Newton iteration succeeded in finding operating point.

.step ids=10 val=0.173780082874938
Direct Newton iteration succeeded in finding operating point.

.step ids=12.5892541179417 val=0.173780082874938
Direct Newton iteration succeeded in finding operating point.

.step ids=15.8489319246112 val=0.173780082874938
Direct Newton iteration succeeded in finding operating point.

.step ids=19.9526231496888 val=0.173780082874938
Direct Newton iteration succeeded in finding operating point.

.step ids=25.1188643150958 val=0.173780082874938
Direct Newton iteration succeeded in finding operating point.

.step ids=31.6227766016838 val=0.173780082874938
Direct Newton iteration succeeded in finding operating point.

.step ids=39.8107170553498 val=0.173780082874938
Direct Newton iteration succeeded in finding operating point.

.step ids=50.1187233627273 val=0.173780082874938
Direct Newton iteration succeeded in finding operating point.

.step ids=63.0957344480194 val=0.173780082874938
Direct Newton iteration succeeded in finding operating point.

.step ids=79.4328234724283 val=0.173780082874938
Direct Newton iteration succeeded in finding operating point.

.step ids=100 val=0.173780082874938
Direct Newton iteration succeeded in finding operating point.

.step ids=125.892541179417 val=0.173780082874938
Direct Newton iteration succeeded in finding operating point.

.step ids=158.489319246112 val=0.173780082874938
Direct Newton iteration succeeded in finding operating point.

.step ids=199.526231496888 val=0.173780082874938
Direct Newton iteration succeeded in finding operating point.

.step ids=251.188643150958 val=0.173780082874938
Direct Newton iteration succeeded in finding operating point.

.step ids=316.227766016839 val=0.173780082874938
Direct Newton iteration succeeded in finding operating point.

.step ids=398.107170553498 val=0.173780082874938
Direct Newton iteration succeeded in finding operating point.

.step ids=500 val=0.173780082874938
Direct Newton iteration succeeded in finding operating point.

.step ids=0.1 val=0.190546071796325
Direct Newton iteration succeeded in finding operating point.

.step ids=0.125892541179417 val=0.190546071796325
Direct Newton iteration succeeded in finding operating point.

.step ids=0.158489319246111 val=0.190546071796325
Direct Newton iteration succeeded in finding operating point.

.step ids=0.199526231496888 val=0.190546071796325
Direct Newton iteration succeeded in finding operating point.

.step ids=0.251188643150958 val=0.190546071796325
Direct Newton iteration succeeded in finding operating point.

.step ids=0.316227766016838 val=0.190546071796325
Direct Newton iteration succeeded in finding operating point.

.step ids=0.398107170553497 val=0.190546071796325
Direct Newton iteration succeeded in finding operating point.

.step ids=0.501187233627272 val=0.190546071796325
Direct Newton iteration succeeded in finding operating point.

.step ids=0.630957344480194 val=0.190546071796325
Direct Newton iteration succeeded in finding operating point.

.step ids=0.794328234724282 val=0.190546071796325
Direct Newton iteration succeeded in finding operating point.

.step ids=1 val=0.190546071796325
Direct Newton iteration succeeded in finding operating point.

.step ids=1.25892541179417 val=0.190546071796325
Direct Newton iteration succeeded in finding operating point.

.step ids=1.58489319246111 val=0.190546071796325
Direct Newton iteration succeeded in finding operating point.

.step ids=1.99526231496888 val=0.190546071796325
Direct Newton iteration succeeded in finding operating point.

.step ids=2.51188643150958 val=0.190546071796325
Direct Newton iteration succeeded in finding operating point.

.step ids=3.16227766016838 val=0.190546071796325
Direct Newton iteration succeeded in finding operating point.

.step ids=3.98107170553498 val=0.190546071796325
Direct Newton iteration succeeded in finding operating point.

.step ids=5.01187233627273 val=0.190546071796325
Direct Newton iteration succeeded in finding operating point.

.step ids=6.30957344480194 val=0.190546071796325
Direct Newton iteration succeeded in finding operating point.

.step ids=7.94328234724282 val=0.190546071796325
Direct Newton iteration succeeded in finding operating point.

.step ids=10 val=0.190546071796325
Direct Newton iteration succeeded in finding operating point.

.step ids=12.5892541179417 val=0.190546071796325
Direct Newton iteration succeeded in finding operating point.

.step ids=15.8489319246112 val=0.190546071796325
Direct Newton iteration succeeded in finding operating point.

.step ids=19.9526231496888 val=0.190546071796325
Direct Newton iteration succeeded in finding operating point.

.step ids=25.1188643150958 val=0.190546071796325
Direct Newton iteration succeeded in finding operating point.

.step ids=31.6227766016838 val=0.190546071796325
Direct Newton iteration succeeded in finding operating point.

.step ids=39.8107170553498 val=0.190546071796325
Direct Newton iteration succeeded in finding operating point.

.step ids=50.1187233627273 val=0.190546071796325
Direct Newton iteration succeeded in finding operating point.

.step ids=63.0957344480194 val=0.190546071796325
Direct Newton iteration succeeded in finding operating point.

.step ids=79.4328234724283 val=0.190546071796325
Direct Newton iteration succeeded in finding operating point.

.step ids=100 val=0.190546071796325
Direct Newton iteration succeeded in finding operating point.

.step ids=125.892541179417 val=0.190546071796325
Direct Newton iteration succeeded in finding operating point.

.step ids=158.489319246112 val=0.190546071796325
Direct Newton iteration succeeded in finding operating point.

.step ids=199.526231496888 val=0.190546071796325
Direct Newton iteration succeeded in finding operating point.

.step ids=251.188643150958 val=0.190546071796325
Direct Newton iteration succeeded in finding operating point.

.step ids=316.227766016839 val=0.190546071796325
Direct Newton iteration succeeded in finding operating point.

.step ids=398.107170553498 val=0.190546071796325
Direct Newton iteration succeeded in finding operating point.

.step ids=500 val=0.190546071796325
Direct Newton iteration succeeded in finding operating point.

.step ids=0.1 val=0.208929613085404
Direct Newton iteration succeeded in finding operating point.

.step ids=0.125892541179417 val=0.208929613085404
Direct Newton iteration succeeded in finding operating point.

.step ids=0.158489319246111 val=0.208929613085404
Direct Newton iteration succeeded in finding operating point.

.step ids=0.199526231496888 val=0.208929613085404
Direct Newton iteration succeeded in finding operating point.

.step ids=0.251188643150958 val=0.208929613085404
Direct Newton iteration succeeded in finding operating point.

.step ids=0.316227766016838 val=0.208929613085404
Direct Newton iteration succeeded in finding operating point.

.step ids=0.398107170553497 val=0.208929613085404
Direct Newton iteration succeeded in finding operating point.

.step ids=0.501187233627272 val=0.208929613085404
Direct Newton iteration succeeded in finding operating point.

.step ids=0.630957344480194 val=0.208929613085404
Direct Newton iteration succeeded in finding operating point.

.step ids=0.794328234724282 val=0.208929613085404
Direct Newton iteration succeeded in finding operating point.

.step ids=1 val=0.208929613085404
Direct Newton iteration succeeded in finding operating point.

.step ids=1.25892541179417 val=0.208929613085404
Direct Newton iteration succeeded in finding operating point.

.step ids=1.58489319246111 val=0.208929613085404
Direct Newton iteration succeeded in finding operating point.

.step ids=1.99526231496888 val=0.208929613085404
Direct Newton iteration succeeded in finding operating point.

.step ids=2.51188643150958 val=0.208929613085404
Direct Newton iteration succeeded in finding operating point.

.step ids=3.16227766016838 val=0.208929613085404
Direct Newton iteration succeeded in finding operating point.

.step ids=3.98107170553498 val=0.208929613085404
Direct Newton iteration succeeded in finding operating point.

.step ids=5.01187233627273 val=0.208929613085404
Direct Newton iteration succeeded in finding operating point.

.step ids=6.30957344480194 val=0.208929613085404
Direct Newton iteration succeeded in finding operating point.

.step ids=7.94328234724282 val=0.208929613085404
Direct Newton iteration succeeded in finding operating point.

.step ids=10 val=0.208929613085404
Direct Newton iteration succeeded in finding operating point.

.step ids=12.5892541179417 val=0.208929613085404
Direct Newton iteration succeeded in finding operating point.

.step ids=15.8489319246112 val=0.208929613085404
Direct Newton iteration succeeded in finding operating point.

.step ids=19.9526231496888 val=0.208929613085404
Direct Newton iteration succeeded in finding operating point.

.step ids=25.1188643150958 val=0.208929613085404
Direct Newton iteration succeeded in finding operating point.

.step ids=31.6227766016838 val=0.208929613085404
Direct Newton iteration succeeded in finding operating point.

.step ids=39.8107170553498 val=0.208929613085404
Direct Newton iteration succeeded in finding operating point.

.step ids=50.1187233627273 val=0.208929613085404
Direct Newton iteration succeeded in finding operating point.

.step ids=63.0957344480194 val=0.208929613085404
Direct Newton iteration succeeded in finding operating point.

.step ids=79.4328234724283 val=0.208929613085404
Direct Newton iteration succeeded in finding operating point.

.step ids=100 val=0.208929613085404
Direct Newton iteration succeeded in finding operating point.

.step ids=125.892541179417 val=0.208929613085404
Direct Newton iteration succeeded in finding operating point.

.step ids=158.489319246112 val=0.208929613085404
Direct Newton iteration succeeded in finding operating point.

.step ids=199.526231496888 val=0.208929613085404
Direct Newton iteration succeeded in finding operating point.

.step ids=251.188643150958 val=0.208929613085404
Direct Newton iteration succeeded in finding operating point.

.step ids=316.227766016839 val=0.208929613085404
Direct Newton iteration succeeded in finding operating point.

.step ids=398.107170553498 val=0.208929613085404
Direct Newton iteration succeeded in finding operating point.

.step ids=500 val=0.208929613085404
Direct Newton iteration succeeded in finding operating point.

.step ids=0.1 val=0.229086765276777
Direct Newton iteration succeeded in finding operating point.

.step ids=0.125892541179417 val=0.229086765276777
Direct Newton iteration succeeded in finding operating point.

.step ids=0.158489319246111 val=0.229086765276777
Direct Newton iteration succeeded in finding operating point.

.step ids=0.199526231496888 val=0.229086765276777
Direct Newton iteration succeeded in finding operating point.

.step ids=0.251188643150958 val=0.229086765276777
Direct Newton iteration succeeded in finding operating point.

.step ids=0.316227766016838 val=0.229086765276777
Direct Newton iteration succeeded in finding operating point.

.step ids=0.398107170553497 val=0.229086765276777
Direct Newton iteration succeeded in finding operating point.

.step ids=0.501187233627272 val=0.229086765276777
Direct Newton iteration succeeded in finding operating point.

.step ids=0.630957344480194 val=0.229086765276777
Direct Newton iteration succeeded in finding operating point.

.step ids=0.794328234724282 val=0.229086765276777
Direct Newton iteration succeeded in finding operating point.

.step ids=1 val=0.229086765276777
Direct Newton iteration succeeded in finding operating point.

.step ids=1.25892541179417 val=0.229086765276777
Direct Newton iteration succeeded in finding operating point.

.step ids=1.58489319246111 val=0.229086765276777
Direct Newton iteration succeeded in finding operating point.

.step ids=1.99526231496888 val=0.229086765276777
Direct Newton iteration succeeded in finding operating point.

.step ids=2.51188643150958 val=0.229086765276777
Direct Newton iteration succeeded in finding operating point.

.step ids=3.16227766016838 val=0.229086765276777
Direct Newton iteration succeeded in finding operating point.

.step ids=3.98107170553498 val=0.229086765276777
Direct Newton iteration succeeded in finding operating point.

.step ids=5.01187233627273 val=0.229086765276777
Direct Newton iteration succeeded in finding operating point.

.step ids=6.30957344480194 val=0.229086765276777
Direct Newton iteration succeeded in finding operating point.

.step ids=7.94328234724282 val=0.229086765276777
Direct Newton iteration succeeded in finding operating point.

.step ids=10 val=0.229086765276777
Direct Newton iteration succeeded in finding operating point.

.step ids=12.5892541179417 val=0.229086765276777
Direct Newton iteration succeeded in finding operating point.

.step ids=15.8489319246112 val=0.229086765276777
Direct Newton iteration succeeded in finding operating point.

.step ids=19.9526231496888 val=0.229086765276777
Direct Newton iteration succeeded in finding operating point.

.step ids=25.1188643150958 val=0.229086765276777
Direct Newton iteration succeeded in finding operating point.

.step ids=31.6227766016838 val=0.229086765276777
Direct Newton iteration succeeded in finding operating point.

.step ids=39.8107170553498 val=0.229086765276777
Direct Newton iteration succeeded in finding operating point.

.step ids=50.1187233627273 val=0.229086765276777
Direct Newton iteration succeeded in finding operating point.

.step ids=63.0957344480194 val=0.229086765276777
Direct Newton iteration succeeded in finding operating point.

.step ids=79.4328234724283 val=0.229086765276777
Direct Newton iteration succeeded in finding operating point.

.step ids=100 val=0.229086765276777
Direct Newton iteration succeeded in finding operating point.

.step ids=125.892541179417 val=0.229086765276777
Direct Newton iteration succeeded in finding operating point.

.step ids=158.489319246112 val=0.229086765276777
Direct Newton iteration succeeded in finding operating point.

.step ids=199.526231496888 val=0.229086765276777
Direct Newton iteration succeeded in finding operating point.

.step ids=251.188643150958 val=0.229086765276777
Direct Newton iteration succeeded in finding operating point.

.step ids=316.227766016839 val=0.229086765276777
Direct Newton iteration succeeded in finding operating point.

.step ids=398.107170553498 val=0.229086765276777
Direct Newton iteration succeeded in finding operating point.

.step ids=500 val=0.229086765276777
Direct Newton iteration succeeded in finding operating point.

.step ids=0.1 val=0.251188643150958
Direct Newton iteration succeeded in finding operating point.

.step ids=0.125892541179417 val=0.251188643150958
Direct Newton iteration succeeded in finding operating point.

.step ids=0.158489319246111 val=0.251188643150958
Direct Newton iteration succeeded in finding operating point.

.step ids=0.199526231496888 val=0.251188643150958
Direct Newton iteration succeeded in finding operating point.

.step ids=0.251188643150958 val=0.251188643150958
Direct Newton iteration succeeded in finding operating point.

.step ids=0.316227766016838 val=0.251188643150958
Direct Newton iteration succeeded in finding operating point.

.step ids=0.398107170553497 val=0.251188643150958
Direct Newton iteration succeeded in finding operating point.

.step ids=0.501187233627272 val=0.251188643150958
Direct Newton iteration succeeded in finding operating point.

.step ids=0.630957344480194 val=0.251188643150958
Direct Newton iteration succeeded in finding operating point.

.step ids=0.794328234724282 val=0.251188643150958
Direct Newton iteration succeeded in finding operating point.

.step ids=1 val=0.251188643150958
Direct Newton iteration succeeded in finding operating point.

.step ids=1.25892541179417 val=0.251188643150958
Direct Newton iteration succeeded in finding operating point.

.step ids=1.58489319246111 val=0.251188643150958
Direct Newton iteration succeeded in finding operating point.

.step ids=1.99526231496888 val=0.251188643150958
Direct Newton iteration succeeded in finding operating point.

.step ids=2.51188643150958 val=0.251188643150958
Direct Newton iteration succeeded in finding operating point.

.step ids=3.16227766016838 val=0.251188643150958
Direct Newton iteration succeeded in finding operating point.

.step ids=3.98107170553498 val=0.251188643150958
Direct Newton iteration succeeded in finding operating point.

.step ids=5.01187233627273 val=0.251188643150958
Direct Newton iteration succeeded in finding operating point.

.step ids=6.30957344480194 val=0.251188643150958
Direct Newton iteration succeeded in finding operating point.

.step ids=7.94328234724282 val=0.251188643150958
Direct Newton iteration succeeded in finding operating point.

.step ids=10 val=0.251188643150958
Direct Newton iteration succeeded in finding operating point.

.step ids=12.5892541179417 val=0.251188643150958
Direct Newton iteration succeeded in finding operating point.

.step ids=15.8489319246112 val=0.251188643150958
Direct Newton iteration succeeded in finding operating point.

.step ids=19.9526231496888 val=0.251188643150958
Direct Newton iteration succeeded in finding operating point.

.step ids=25.1188643150958 val=0.251188643150958
Direct Newton iteration succeeded in finding operating point.

.step ids=31.6227766016838 val=0.251188643150958
Direct Newton iteration succeeded in finding operating point.

.step ids=39.8107170553498 val=0.251188643150958
Direct Newton iteration succeeded in finding operating point.

.step ids=50.1187233627273 val=0.251188643150958
Direct Newton iteration succeeded in finding operating point.

.step ids=63.0957344480194 val=0.251188643150958
Direct Newton iteration succeeded in finding operating point.

.step ids=79.4328234724283 val=0.251188643150958
Direct Newton iteration succeeded in finding operating point.

.step ids=100 val=0.251188643150958
Direct Newton iteration succeeded in finding operating point.

.step ids=125.892541179417 val=0.251188643150958
Direct Newton iteration succeeded in finding operating point.

.step ids=158.489319246112 val=0.251188643150958
Direct Newton iteration succeeded in finding operating point.

.step ids=199.526231496888 val=0.251188643150958
Direct Newton iteration succeeded in finding operating point.

.step ids=251.188643150958 val=0.251188643150958
Direct Newton iteration succeeded in finding operating point.

.step ids=316.227766016839 val=0.251188643150958
Direct Newton iteration succeeded in finding operating point.

.step ids=398.107170553498 val=0.251188643150958
Direct Newton iteration succeeded in finding operating point.

.step ids=500 val=0.251188643150958
Direct Newton iteration succeeded in finding operating point.

.step ids=0.1 val=0.275422870333817
Direct Newton iteration succeeded in finding operating point.

.step ids=0.125892541179417 val=0.275422870333817
Direct Newton iteration succeeded in finding operating point.

.step ids=0.158489319246111 val=0.275422870333817
Direct Newton iteration succeeded in finding operating point.

.step ids=0.199526231496888 val=0.275422870333817
Direct Newton iteration succeeded in finding operating point.

.step ids=0.251188643150958 val=0.275422870333817
Direct Newton iteration succeeded in finding operating point.

.step ids=0.316227766016838 val=0.275422870333817
Direct Newton iteration succeeded in finding operating point.

.step ids=0.398107170553497 val=0.275422870333817
Direct Newton iteration succeeded in finding operating point.

.step ids=0.501187233627272 val=0.275422870333817
Direct Newton iteration succeeded in finding operating point.

.step ids=0.630957344480194 val=0.275422870333817
Direct Newton iteration succeeded in finding operating point.

.step ids=0.794328234724282 val=0.275422870333817
Direct Newton iteration succeeded in finding operating point.

.step ids=1 val=0.275422870333817
Direct Newton iteration succeeded in finding operating point.

.step ids=1.25892541179417 val=0.275422870333817
Direct Newton iteration succeeded in finding operating point.

.step ids=1.58489319246111 val=0.275422870333817
Direct Newton iteration succeeded in finding operating point.

.step ids=1.99526231496888 val=0.275422870333817
Direct Newton iteration succeeded in finding operating point.

.step ids=2.51188643150958 val=0.275422870333817
Direct Newton iteration succeeded in finding operating point.

.step ids=3.16227766016838 val=0.275422870333817
Direct Newton iteration succeeded in finding operating point.

.step ids=3.98107170553498 val=0.275422870333817
Direct Newton iteration succeeded in finding operating point.

.step ids=5.01187233627273 val=0.275422870333817
Direct Newton iteration succeeded in finding operating point.

.step ids=6.30957344480194 val=0.275422870333817
Direct Newton iteration succeeded in finding operating point.

.step ids=7.94328234724282 val=0.275422870333817
Direct Newton iteration succeeded in finding operating point.

.step ids=10 val=0.275422870333817
Direct Newton iteration succeeded in finding operating point.

.step ids=12.5892541179417 val=0.275422870333817
Direct Newton iteration succeeded in finding operating point.

.step ids=15.8489319246112 val=0.275422870333817
Direct Newton iteration succeeded in finding operating point.

.step ids=19.9526231496888 val=0.275422870333817
Direct Newton iteration succeeded in finding operating point.

.step ids=25.1188643150958 val=0.275422870333817
Direct Newton iteration succeeded in finding operating point.

.step ids=31.6227766016838 val=0.275422870333817
Direct Newton iteration succeeded in finding operating point.

.step ids=39.8107170553498 val=0.275422870333817
Direct Newton iteration succeeded in finding operating point.

.step ids=50.1187233627273 val=0.275422870333817
Direct Newton iteration succeeded in finding operating point.

.step ids=63.0957344480194 val=0.275422870333817
Direct Newton iteration succeeded in finding operating point.

.step ids=79.4328234724283 val=0.275422870333817
Direct Newton iteration succeeded in finding operating point.

.step ids=100 val=0.275422870333817
Direct Newton iteration succeeded in finding operating point.

.step ids=125.892541179417 val=0.275422870333817
Direct Newton iteration succeeded in finding operating point.

.step ids=158.489319246112 val=0.275422870333817
Direct Newton iteration succeeded in finding operating point.

.step ids=199.526231496888 val=0.275422870333817
Direct Newton iteration succeeded in finding operating point.

.step ids=251.188643150958 val=0.275422870333817
Direct Newton iteration succeeded in finding operating point.

.step ids=316.227766016839 val=0.275422870333817
Direct Newton iteration succeeded in finding operating point.

.step ids=398.107170553498 val=0.275422870333817
Direct Newton iteration succeeded in finding operating point.

.step ids=500 val=0.275422870333817
Direct Newton iteration succeeded in finding operating point.

.step ids=0.1 val=0.301995172040202
Direct Newton iteration succeeded in finding operating point.

.step ids=0.125892541179417 val=0.301995172040202
Direct Newton iteration succeeded in finding operating point.

.step ids=0.158489319246111 val=0.301995172040202
Direct Newton iteration succeeded in finding operating point.

.step ids=0.199526231496888 val=0.301995172040202
Direct Newton iteration succeeded in finding operating point.

.step ids=0.251188643150958 val=0.301995172040202
Direct Newton iteration succeeded in finding operating point.

.step ids=0.316227766016838 val=0.301995172040202
Direct Newton iteration succeeded in finding operating point.

.step ids=0.398107170553497 val=0.301995172040202
Direct Newton iteration succeeded in finding operating point.

.step ids=0.501187233627272 val=0.301995172040202
Direct Newton iteration succeeded in finding operating point.

.step ids=0.630957344480194 val=0.301995172040202
Direct Newton iteration succeeded in finding operating point.

.step ids=0.794328234724282 val=0.301995172040202
Direct Newton iteration succeeded in finding operating point.

.step ids=1 val=0.301995172040202
Direct Newton iteration succeeded in finding operating point.

.step ids=1.25892541179417 val=0.301995172040202
Direct Newton iteration succeeded in finding operating point.

.step ids=1.58489319246111 val=0.301995172040202
Direct Newton iteration succeeded in finding operating point.

.step ids=1.99526231496888 val=0.301995172040202
Direct Newton iteration succeeded in finding operating point.

.step ids=2.51188643150958 val=0.301995172040202
Direct Newton iteration succeeded in finding operating point.

.step ids=3.16227766016838 val=0.301995172040202
Direct Newton iteration succeeded in finding operating point.

.step ids=3.98107170553498 val=0.301995172040202
Direct Newton iteration succeeded in finding operating point.

.step ids=5.01187233627273 val=0.301995172040202
Direct Newton iteration succeeded in finding operating point.

.step ids=6.30957344480194 val=0.301995172040202
Direct Newton iteration succeeded in finding operating point.

.step ids=7.94328234724282 val=0.301995172040202
Direct Newton iteration succeeded in finding operating point.

.step ids=10 val=0.301995172040202
Direct Newton iteration succeeded in finding operating point.

.step ids=12.5892541179417 val=0.301995172040202
Direct Newton iteration succeeded in finding operating point.

.step ids=15.8489319246112 val=0.301995172040202
Direct Newton iteration succeeded in finding operating point.

.step ids=19.9526231496888 val=0.301995172040202
Direct Newton iteration succeeded in finding operating point.

.step ids=25.1188643150958 val=0.301995172040202
Direct Newton iteration succeeded in finding operating point.

.step ids=31.6227766016838 val=0.301995172040202
Direct Newton iteration succeeded in finding operating point.

.step ids=39.8107170553498 val=0.301995172040202
Direct Newton iteration succeeded in finding operating point.

.step ids=50.1187233627273 val=0.301995172040202
Direct Newton iteration succeeded in finding operating point.

.step ids=63.0957344480194 val=0.301995172040202
Direct Newton iteration succeeded in finding operating point.

.step ids=79.4328234724283 val=0.301995172040202
Direct Newton iteration succeeded in finding operating point.

.step ids=100 val=0.301995172040202
Direct Newton iteration succeeded in finding operating point.

.step ids=125.892541179417 val=0.301995172040202
Direct Newton iteration succeeded in finding operating point.

.step ids=158.489319246112 val=0.301995172040202
Direct Newton iteration succeeded in finding operating point.

.step ids=199.526231496888 val=0.301995172040202
Direct Newton iteration succeeded in finding operating point.

.step ids=251.188643150958 val=0.301995172040202
Direct Newton iteration succeeded in finding operating point.

.step ids=316.227766016839 val=0.301995172040202
Direct Newton iteration succeeded in finding operating point.

.step ids=398.107170553498 val=0.301995172040202
Direct Newton iteration succeeded in finding operating point.

.step ids=500 val=0.301995172040202
Direct Newton iteration succeeded in finding operating point.

.step ids=0.1 val=0.331131121482591
Direct Newton iteration succeeded in finding operating point.

.step ids=0.125892541179417 val=0.331131121482591
Direct Newton iteration succeeded in finding operating point.

.step ids=0.158489319246111 val=0.331131121482591
Direct Newton iteration succeeded in finding operating point.

.step ids=0.199526231496888 val=0.331131121482591
Direct Newton iteration succeeded in finding operating point.

.step ids=0.251188643150958 val=0.331131121482591
Direct Newton iteration succeeded in finding operating point.

.step ids=0.316227766016838 val=0.331131121482591
Direct Newton iteration succeeded in finding operating point.

.step ids=0.398107170553497 val=0.331131121482591
Direct Newton iteration succeeded in finding operating point.

.step ids=0.501187233627272 val=0.331131121482591
Direct Newton iteration succeeded in finding operating point.

.step ids=0.630957344480194 val=0.331131121482591
Direct Newton iteration succeeded in finding operating point.

.step ids=0.794328234724282 val=0.331131121482591
Direct Newton iteration succeeded in finding operating point.

.step ids=1 val=0.331131121482591
Direct Newton iteration succeeded in finding operating point.

.step ids=1.25892541179417 val=0.331131121482591
Direct Newton iteration succeeded in finding operating point.

.step ids=1.58489319246111 val=0.331131121482591
Direct Newton iteration succeeded in finding operating point.

.step ids=1.99526231496888 val=0.331131121482591
Direct Newton iteration succeeded in finding operating point.

.step ids=2.51188643150958 val=0.331131121482591
Direct Newton iteration succeeded in finding operating point.

.step ids=3.16227766016838 val=0.331131121482591
Direct Newton iteration succeeded in finding operating point.

.step ids=3.98107170553498 val=0.331131121482591
Direct Newton iteration succeeded in finding operating point.

.step ids=5.01187233627273 val=0.331131121482591
Direct Newton iteration succeeded in finding operating point.

.step ids=6.30957344480194 val=0.331131121482591
Direct Newton iteration succeeded in finding operating point.

.step ids=7.94328234724282 val=0.331131121482591
Direct Newton iteration succeeded in finding operating point.

.step ids=10 val=0.331131121482591
Direct Newton iteration succeeded in finding operating point.

.step ids=12.5892541179417 val=0.331131121482591
Direct Newton iteration succeeded in finding operating point.

.step ids=15.8489319246112 val=0.331131121482591
Direct Newton iteration succeeded in finding operating point.

.step ids=19.9526231496888 val=0.331131121482591
Direct Newton iteration succeeded in finding operating point.

.step ids=25.1188643150958 val=0.331131121482591
Direct Newton iteration succeeded in finding operating point.

.step ids=31.6227766016838 val=0.331131121482591
Direct Newton iteration succeeded in finding operating point.

.step ids=39.8107170553498 val=0.331131121482591
Direct Newton iteration succeeded in finding operating point.

.step ids=50.1187233627273 val=0.331131121482591
Direct Newton iteration succeeded in finding operating point.

.step ids=63.0957344480194 val=0.331131121482591
Direct Newton iteration succeeded in finding operating point.

.step ids=79.4328234724283 val=0.331131121482591
Direct Newton iteration succeeded in finding operating point.

.step ids=100 val=0.331131121482591
Direct Newton iteration succeeded in finding operating point.

.step ids=125.892541179417 val=0.331131121482591
Direct Newton iteration succeeded in finding operating point.

.step ids=158.489319246112 val=0.331131121482591
Direct Newton iteration succeeded in finding operating point.

.step ids=199.526231496888 val=0.331131121482591
Direct Newton iteration succeeded in finding operating point.

.step ids=251.188643150958 val=0.331131121482591
Direct Newton iteration succeeded in finding operating point.

.step ids=316.227766016839 val=0.331131121482591
Direct Newton iteration succeeded in finding operating point.

.step ids=398.107170553498 val=0.331131121482591
Direct Newton iteration succeeded in finding operating point.

.step ids=500 val=0.331131121482591
Direct Newton iteration succeeded in finding operating point.

.step ids=0.1 val=0.363078054770102
Direct Newton iteration succeeded in finding operating point.

.step ids=0.125892541179417 val=0.363078054770102
Direct Newton iteration succeeded in finding operating point.

.step ids=0.158489319246111 val=0.363078054770102
Direct Newton iteration succeeded in finding operating point.

.step ids=0.199526231496888 val=0.363078054770102
Direct Newton iteration succeeded in finding operating point.

.step ids=0.251188643150958 val=0.363078054770102
Direct Newton iteration succeeded in finding operating point.

.step ids=0.316227766016838 val=0.363078054770102
Direct Newton iteration succeeded in finding operating point.

.step ids=0.398107170553497 val=0.363078054770102
Direct Newton iteration succeeded in finding operating point.

.step ids=0.501187233627272 val=0.363078054770102
Direct Newton iteration succeeded in finding operating point.

.step ids=0.630957344480194 val=0.363078054770102
Direct Newton iteration succeeded in finding operating point.

.step ids=0.794328234724282 val=0.363078054770102
Direct Newton iteration succeeded in finding operating point.

.step ids=1 val=0.363078054770102
Direct Newton iteration succeeded in finding operating point.

.step ids=1.25892541179417 val=0.363078054770102
Direct Newton iteration succeeded in finding operating point.

.step ids=1.58489319246111 val=0.363078054770102
Direct Newton iteration succeeded in finding operating point.

.step ids=1.99526231496888 val=0.363078054770102
Direct Newton iteration succeeded in finding operating point.

.step ids=2.51188643150958 val=0.363078054770102
Direct Newton iteration succeeded in finding operating point.

.step ids=3.16227766016838 val=0.363078054770102
Direct Newton iteration succeeded in finding operating point.

.step ids=3.98107170553498 val=0.363078054770102
Direct Newton iteration succeeded in finding operating point.

.step ids=5.01187233627273 val=0.363078054770102
Direct Newton iteration succeeded in finding operating point.

.step ids=6.30957344480194 val=0.363078054770102
Direct Newton iteration succeeded in finding operating point.

.step ids=7.94328234724282 val=0.363078054770102
Direct Newton iteration succeeded in finding operating point.

.step ids=10 val=0.363078054770102
Direct Newton iteration succeeded in finding operating point.

.step ids=12.5892541179417 val=0.363078054770102
Direct Newton iteration succeeded in finding operating point.

.step ids=15.8489319246112 val=0.363078054770102
Direct Newton iteration succeeded in finding operating point.

.step ids=19.9526231496888 val=0.363078054770102
Direct Newton iteration succeeded in finding operating point.

.step ids=25.1188643150958 val=0.363078054770102
Direct Newton iteration succeeded in finding operating point.

.step ids=31.6227766016838 val=0.363078054770102
Direct Newton iteration succeeded in finding operating point.

.step ids=39.8107170553498 val=0.363078054770102
Direct Newton iteration succeeded in finding operating point.

.step ids=50.1187233627273 val=0.363078054770102
Direct Newton iteration succeeded in finding operating point.

.step ids=63.0957344480194 val=0.363078054770102
Direct Newton iteration succeeded in finding operating point.

.step ids=79.4328234724283 val=0.363078054770102
Direct Newton iteration succeeded in finding operating point.

.step ids=100 val=0.363078054770102
Direct Newton iteration succeeded in finding operating point.

.step ids=125.892541179417 val=0.363078054770102
Direct Newton iteration succeeded in finding operating point.

.step ids=158.489319246112 val=0.363078054770102
Direct Newton iteration succeeded in finding operating point.

.step ids=199.526231496888 val=0.363078054770102
Direct Newton iteration succeeded in finding operating point.

.step ids=251.188643150958 val=0.363078054770102
Direct Newton iteration succeeded in finding operating point.

.step ids=316.227766016839 val=0.363078054770102
Direct Newton iteration succeeded in finding operating point.

.step ids=398.107170553498 val=0.363078054770102
Direct Newton iteration succeeded in finding operating point.

.step ids=500 val=0.363078054770102
Direct Newton iteration succeeded in finding operating point.

.step ids=0.1 val=0.398107170553498
Direct Newton iteration succeeded in finding operating point.

.step ids=0.125892541179417 val=0.398107170553498
Direct Newton iteration succeeded in finding operating point.

.step ids=0.158489319246111 val=0.398107170553498
Direct Newton iteration succeeded in finding operating point.

.step ids=0.199526231496888 val=0.398107170553498
Direct Newton iteration succeeded in finding operating point.

.step ids=0.251188643150958 val=0.398107170553498
Direct Newton iteration succeeded in finding operating point.

.step ids=0.316227766016838 val=0.398107170553498
Direct Newton iteration succeeded in finding operating point.

.step ids=0.398107170553497 val=0.398107170553498
Direct Newton iteration succeeded in finding operating point.

.step ids=0.501187233627272 val=0.398107170553498
Direct Newton iteration succeeded in finding operating point.

.step ids=0.630957344480194 val=0.398107170553498
Direct Newton iteration succeeded in finding operating point.

.step ids=0.794328234724282 val=0.398107170553498
Direct Newton iteration succeeded in finding operating point.

.step ids=1 val=0.398107170553498
Direct Newton iteration succeeded in finding operating point.

.step ids=1.25892541179417 val=0.398107170553498
Direct Newton iteration succeeded in finding operating point.

.step ids=1.58489319246111 val=0.398107170553498
Direct Newton iteration succeeded in finding operating point.

.step ids=1.99526231496888 val=0.398107170553498
Direct Newton iteration succeeded in finding operating point.

.step ids=2.51188643150958 val=0.398107170553498
Direct Newton iteration succeeded in finding operating point.

.step ids=3.16227766016838 val=0.398107170553498
Direct Newton iteration succeeded in finding operating point.

.step ids=3.98107170553498 val=0.398107170553498
Direct Newton iteration succeeded in finding operating point.

.step ids=5.01187233627273 val=0.398107170553498
Direct Newton iteration succeeded in finding operating point.

.step ids=6.30957344480194 val=0.398107170553498
Direct Newton iteration succeeded in finding operating point.

.step ids=7.94328234724282 val=0.398107170553498
Direct Newton iteration succeeded in finding operating point.

.step ids=10 val=0.398107170553498
Direct Newton iteration succeeded in finding operating point.

.step ids=12.5892541179417 val=0.398107170553498
Direct Newton iteration succeeded in finding operating point.

.step ids=15.8489319246112 val=0.398107170553498
Direct Newton iteration succeeded in finding operating point.

.step ids=19.9526231496888 val=0.398107170553498
Direct Newton iteration succeeded in finding operating point.

.step ids=25.1188643150958 val=0.398107170553498
Direct Newton iteration succeeded in finding operating point.

.step ids=31.6227766016838 val=0.398107170553498
Direct Newton iteration succeeded in finding operating point.

.step ids=39.8107170553498 val=0.398107170553498
Direct Newton iteration succeeded in finding operating point.

.step ids=50.1187233627273 val=0.398107170553498
Direct Newton iteration succeeded in finding operating point.

.step ids=63.0957344480194 val=0.398107170553498
Direct Newton iteration succeeded in finding operating point.

.step ids=79.4328234724283 val=0.398107170553498
Direct Newton iteration succeeded in finding operating point.

.step ids=100 val=0.398107170553498
Direct Newton iteration succeeded in finding operating point.

.step ids=125.892541179417 val=0.398107170553498
Direct Newton iteration succeeded in finding operating point.

.step ids=158.489319246112 val=0.398107170553498
Direct Newton iteration succeeded in finding operating point.

.step ids=199.526231496888 val=0.398107170553498
Direct Newton iteration succeeded in finding operating point.

.step ids=251.188643150958 val=0.398107170553498
Direct Newton iteration succeeded in finding operating point.

.step ids=316.227766016839 val=0.398107170553498
Direct Newton iteration succeeded in finding operating point.

.step ids=398.107170553498 val=0.398107170553498
Direct Newton iteration succeeded in finding operating point.

.step ids=500 val=0.398107170553498
Direct Newton iteration succeeded in finding operating point.

.step ids=0.1 val=0.436515832240166
Direct Newton iteration succeeded in finding operating point.

.step ids=0.125892541179417 val=0.436515832240166
Direct Newton iteration succeeded in finding operating point.

.step ids=0.158489319246111 val=0.436515832240166
Direct Newton iteration succeeded in finding operating point.

.step ids=0.199526231496888 val=0.436515832240166
Direct Newton iteration succeeded in finding operating point.

.step ids=0.251188643150958 val=0.436515832240166
Direct Newton iteration succeeded in finding operating point.

.step ids=0.316227766016838 val=0.436515832240166
Direct Newton iteration succeeded in finding operating point.

.step ids=0.398107170553497 val=0.436515832240166
Direct Newton iteration succeeded in finding operating point.

.step ids=0.501187233627272 val=0.436515832240166
Direct Newton iteration succeeded in finding operating point.

.step ids=0.630957344480194 val=0.436515832240166
Direct Newton iteration succeeded in finding operating point.

.step ids=0.794328234724282 val=0.436515832240166
Direct Newton iteration succeeded in finding operating point.

.step ids=1 val=0.436515832240166
Direct Newton iteration succeeded in finding operating point.

.step ids=1.25892541179417 val=0.436515832240166
Direct Newton iteration succeeded in finding operating point.

.step ids=1.58489319246111 val=0.436515832240166
Direct Newton iteration succeeded in finding operating point.

.step ids=1.99526231496888 val=0.436515832240166
Direct Newton iteration succeeded in finding operating point.

.step ids=2.51188643150958 val=0.436515832240166
Direct Newton iteration succeeded in finding operating point.

.step ids=3.16227766016838 val=0.436515832240166
Direct Newton iteration succeeded in finding operating point.

.step ids=3.98107170553498 val=0.436515832240166
Direct Newton iteration succeeded in finding operating point.

.step ids=5.01187233627273 val=0.436515832240166
Direct Newton iteration succeeded in finding operating point.

.step ids=6.30957344480194 val=0.436515832240166
Direct Newton iteration succeeded in finding operating point.

.step ids=7.94328234724282 val=0.436515832240166
Direct Newton iteration succeeded in finding operating point.

.step ids=10 val=0.436515832240166
Direct Newton iteration succeeded in finding operating point.

.step ids=12.5892541179417 val=0.436515832240166
Direct Newton iteration succeeded in finding operating point.

.step ids=15.8489319246112 val=0.436515832240166
Direct Newton iteration succeeded in finding operating point.

.step ids=19.9526231496888 val=0.436515832240166
Direct Newton iteration succeeded in finding operating point.

.step ids=25.1188643150958 val=0.436515832240166
Direct Newton iteration succeeded in finding operating point.

.step ids=31.6227766016838 val=0.436515832240166
Direct Newton iteration succeeded in finding operating point.

.step ids=39.8107170553498 val=0.436515832240166
Direct Newton iteration succeeded in finding operating point.

.step ids=50.1187233627273 val=0.436515832240166
Direct Newton iteration succeeded in finding operating point.

.step ids=63.0957344480194 val=0.436515832240166
Direct Newton iteration succeeded in finding operating point.

.step ids=79.4328234724283 val=0.436515832240166
Direct Newton iteration succeeded in finding operating point.

.step ids=100 val=0.436515832240166
Direct Newton iteration succeeded in finding operating point.

.step ids=125.892541179417 val=0.436515832240166
Direct Newton iteration succeeded in finding operating point.

.step ids=158.489319246112 val=0.436515832240166
Direct Newton iteration succeeded in finding operating point.

.step ids=199.526231496888 val=0.436515832240166
Direct Newton iteration succeeded in finding operating point.

.step ids=251.188643150958 val=0.436515832240166
Direct Newton iteration succeeded in finding operating point.

.step ids=316.227766016839 val=0.436515832240166
Direct Newton iteration succeeded in finding operating point.

.step ids=398.107170553498 val=0.436515832240166
Direct Newton iteration succeeded in finding operating point.

.step ids=500 val=0.436515832240166
Direct Newton iteration succeeded in finding operating point.

.step ids=0.1 val=0.478630092322639
Direct Newton iteration succeeded in finding operating point.

.step ids=0.125892541179417 val=0.478630092322639
Direct Newton iteration succeeded in finding operating point.

.step ids=0.158489319246111 val=0.478630092322639
Direct Newton iteration succeeded in finding operating point.

.step ids=0.199526231496888 val=0.478630092322639
Direct Newton iteration succeeded in finding operating point.

.step ids=0.251188643150958 val=0.478630092322639
Direct Newton iteration succeeded in finding operating point.

.step ids=0.316227766016838 val=0.478630092322639
Direct Newton iteration succeeded in finding operating point.

.step ids=0.398107170553497 val=0.478630092322639
Direct Newton iteration succeeded in finding operating point.

.step ids=0.501187233627272 val=0.478630092322639
Direct Newton iteration succeeded in finding operating point.

.step ids=0.630957344480194 val=0.478630092322639
Direct Newton iteration succeeded in finding operating point.

.step ids=0.794328234724282 val=0.478630092322639
Direct Newton iteration succeeded in finding operating point.

.step ids=1 val=0.478630092322639
Direct Newton iteration succeeded in finding operating point.

.step ids=1.25892541179417 val=0.478630092322639
Direct Newton iteration succeeded in finding operating point.

.step ids=1.58489319246111 val=0.478630092322639
Direct Newton iteration succeeded in finding operating point.

.step ids=1.99526231496888 val=0.478630092322639
Direct Newton iteration succeeded in finding operating point.

.step ids=2.51188643150958 val=0.478630092322639
Direct Newton iteration succeeded in finding operating point.

.step ids=3.16227766016838 val=0.478630092322639
Direct Newton iteration succeeded in finding operating point.

.step ids=3.98107170553498 val=0.478630092322639
Direct Newton iteration succeeded in finding operating point.

.step ids=5.01187233627273 val=0.478630092322639
Direct Newton iteration succeeded in finding operating point.

.step ids=6.30957344480194 val=0.478630092322639
Direct Newton iteration succeeded in finding operating point.

.step ids=7.94328234724282 val=0.478630092322639
Direct Newton iteration succeeded in finding operating point.

.step ids=10 val=0.478630092322639
Direct Newton iteration succeeded in finding operating point.

.step ids=12.5892541179417 val=0.478630092322639
Direct Newton iteration succeeded in finding operating point.

.step ids=15.8489319246112 val=0.478630092322639
Direct Newton iteration succeeded in finding operating point.

.step ids=19.9526231496888 val=0.478630092322639
Direct Newton iteration succeeded in finding operating point.

.step ids=25.1188643150958 val=0.478630092322639
Direct Newton iteration succeeded in finding operating point.

.step ids=31.6227766016838 val=0.478630092322639
Direct Newton iteration succeeded in finding operating point.

.step ids=39.8107170553498 val=0.478630092322639
Direct Newton iteration succeeded in finding operating point.

.step ids=50.1187233627273 val=0.478630092322639
Direct Newton iteration succeeded in finding operating point.

.step ids=63.0957344480194 val=0.478630092322639
Direct Newton iteration succeeded in finding operating point.

.step ids=79.4328234724283 val=0.478630092322639
Direct Newton iteration succeeded in finding operating point.

.step ids=100 val=0.478630092322639
Direct Newton iteration succeeded in finding operating point.

.step ids=125.892541179417 val=0.478630092322639
Direct Newton iteration succeeded in finding operating point.

.step ids=158.489319246112 val=0.478630092322639
Direct Newton iteration succeeded in finding operating point.

.step ids=199.526231496888 val=0.478630092322639
Direct Newton iteration succeeded in finding operating point.

.step ids=251.188643150958 val=0.478630092322639
Direct Newton iteration succeeded in finding operating point.

.step ids=316.227766016839 val=0.478630092322639
Direct Newton iteration succeeded in finding operating point.

.step ids=398.107170553498 val=0.478630092322639
Direct Newton iteration succeeded in finding operating point.

.step ids=500 val=0.478630092322639
Direct Newton iteration succeeded in finding operating point.

.step ids=0.1 val=0.524807460249773
Direct Newton iteration succeeded in finding operating point.

.step ids=0.125892541179417 val=0.524807460249773
Direct Newton iteration succeeded in finding operating point.

.step ids=0.158489319246111 val=0.524807460249773
Direct Newton iteration succeeded in finding operating point.

.step ids=0.199526231496888 val=0.524807460249773
Direct Newton iteration succeeded in finding operating point.

.step ids=0.251188643150958 val=0.524807460249773
Direct Newton iteration succeeded in finding operating point.

.step ids=0.316227766016838 val=0.524807460249773
Direct Newton iteration succeeded in finding operating point.

.step ids=0.398107170553497 val=0.524807460249773
Direct Newton iteration succeeded in finding operating point.

.step ids=0.501187233627272 val=0.524807460249773
Direct Newton iteration succeeded in finding operating point.

.step ids=0.630957344480194 val=0.524807460249773
Direct Newton iteration succeeded in finding operating point.

.step ids=0.794328234724282 val=0.524807460249773
Direct Newton iteration succeeded in finding operating point.

.step ids=1 val=0.524807460249773
Direct Newton iteration succeeded in finding operating point.

.step ids=1.25892541179417 val=0.524807460249773
Direct Newton iteration succeeded in finding operating point.

.step ids=1.58489319246111 val=0.524807460249773
Direct Newton iteration succeeded in finding operating point.

.step ids=1.99526231496888 val=0.524807460249773
Direct Newton iteration succeeded in finding operating point.

.step ids=2.51188643150958 val=0.524807460249773
Direct Newton iteration succeeded in finding operating point.

.step ids=3.16227766016838 val=0.524807460249773
Direct Newton iteration succeeded in finding operating point.

.step ids=3.98107170553498 val=0.524807460249773
Direct Newton iteration succeeded in finding operating point.

.step ids=5.01187233627273 val=0.524807460249773
Direct Newton iteration succeeded in finding operating point.

.step ids=6.30957344480194 val=0.524807460249773
Direct Newton iteration succeeded in finding operating point.

.step ids=7.94328234724282 val=0.524807460249773
Direct Newton iteration succeeded in finding operating point.

.step ids=10 val=0.524807460249773
Direct Newton iteration succeeded in finding operating point.

.step ids=12.5892541179417 val=0.524807460249773
Direct Newton iteration succeeded in finding operating point.

.step ids=15.8489319246112 val=0.524807460249773
Direct Newton iteration succeeded in finding operating point.

.step ids=19.9526231496888 val=0.524807460249773
Direct Newton iteration succeeded in finding operating point.

.step ids=25.1188643150958 val=0.524807460249773
Direct Newton iteration succeeded in finding operating point.

.step ids=31.6227766016838 val=0.524807460249773
Direct Newton iteration succeeded in finding operating point.

.step ids=39.8107170553498 val=0.524807460249773
Direct Newton iteration succeeded in finding operating point.

.step ids=50.1187233627273 val=0.524807460249773
Direct Newton iteration succeeded in finding operating point.

.step ids=63.0957344480194 val=0.524807460249773
Direct Newton iteration succeeded in finding operating point.

.step ids=79.4328234724283 val=0.524807460249773
Direct Newton iteration succeeded in finding operating point.

.step ids=100 val=0.524807460249773
Direct Newton iteration succeeded in finding operating point.

.step ids=125.892541179417 val=0.524807460249773
Direct Newton iteration succeeded in finding operating point.

.step ids=158.489319246112 val=0.524807460249773
Direct Newton iteration succeeded in finding operating point.

.step ids=199.526231496888 val=0.524807460249773
Direct Newton iteration succeeded in finding operating point.

.step ids=251.188643150958 val=0.524807460249773
Direct Newton iteration succeeded in finding operating point.

.step ids=316.227766016839 val=0.524807460249773
Direct Newton iteration succeeded in finding operating point.

.step ids=398.107170553498 val=0.524807460249773
[...]
  2962	316.227752686	0.00035
  2963	398.107177734	0.00035
  2964	500	0.00035
  2965	0.10000000149	0.00035
  2966	0.125892534852	0.00035
  2967	0.158489316702	0.00035
  2968	0.199526235461	0.00035
  2969	0.251188635826	0.00035
  2970	0.316227763891	0.00035
  2971	0.398107171059	0.00035
  2972	0.501187205315	0.00035
  2973	0.630957365036	0.00035
  2974	0.794328212738	0.00035
  2975	1	0.00035
  2976	1.25892543793	0.00035
  2977	1.58489322662	0.00035
  2978	1.99526226521	0.00035
  2979	2.51188635826	0.00035
  2980	3.16227769852	0.00035
  2981	3.98107171059	0.00035
  2982	5.01187229156	0.00035
  2983	6.30957365036	0.00035
  2984	7.94328212738	0.00035
  2985	10	0.00035
  2986	12.5892543793	0.00035
  2987	15.8489322662	0.00035
  2988	19.9526233673	0.00035
  2989	25.1188640594	0.00035
  2990	31.6227760315	0.00035
  2991	39.8107185364	0.00035
  2992	50.118724823	0.00035
  2993	63.0957336426	0.00035
  2994	79.4328231812	0.00035
  2995	100	0.00035
  2996	125.892539978	0.00035
  2997	158.489318848	0.00035
  2998	199.526229858	0.00035
  2999	251.188644409	0.00035
  3000	316.227752686	0.00035
  3001	398.107177734	0.00035
  3002	500	0.00035
  3003	0.10000000149	0.00035
  3004	0.125892534852	0.00035
  3005	0.158489316702	0.00035
  3006	0.199526235461	0.00035
  3007	0.251188635826	0.00035
  3008	0.316227763891	0.00035
  3009	0.398107171059	0.00035
  3010	0.501187205315	0.00035
  3011	0.630957365036	0.00035
  3012	0.794328212738	0.00035
  3013	1	0.00035
  3014	1.25892543793	0.00035
  3015	1.58489322662	0.00035
  3016	1.99526226521	0.00035
  3017	2.51188635826	0.00035
  3018	3.16227769852	0.00035
  3019	3.98107171059	0.00035
  3020	5.01187229156	0.00035
  3021	6.30957365036	0.00035
  3022	7.94328212738	0.00035
  3023	10	0.00035
  3024	12.5892543793	0.00035
  3025	15.8489322662	0.00035
  3026	19.9526233673	0.00035
  3027	25.1188640594	0.00035
  3028	31.6227760315	0.00035
  3029	39.8107185364	0.00035
  3030	50.118724823	0.00035
  3031	63.0957336426	0.00035
  3032	79.4328231812	0.00035
  3033	100	0.00035
  3034	125.892539978	0.00035
  3035	158.489318848	0.00035
  3036	199.526229858	0.00035
  3037	251.188644409	0.00035
  3038	316.227752686	0.00035
  3039	398.107177734	0.00035
  3040	500	0.00035
  3041	0.10000000149	0.00035
  3042	0.125892534852	0.00035
  3043	0.158489316702	0.00035
  3044	0.199526235461	0.00035
  3045	0.251188635826	0.00035
  3046	0.316227763891	0.00035
  3047	0.398107171059	0.00035
  3048	0.501187205315	0.00035
  3049	0.630957365036	0.00035
  3050	0.794328212738	0.00035
  3051	1	0.00035
  3052	1.25892543793	0.00035
  3053	1.58489322662	0.00035
  3054	1.99526226521	0.00035
  3055	2.51188635826	0.00035
  3056	3.16227769852	0.00035
  3057	3.98107171059	0.00035
  3058	5.01187229156	0.00035
  3059	6.30957365036	0.00035
  3060	7.94328212738	0.00035
  3061	10	0.00035
  3062	12.5892543793	0.00035
  3063	15.8489322662	0.00035
  3064	19.9526233673	0.00035
  3065	25.1188640594	0.00035
  3066	31.6227760315	0.00035
  3067	39.8107185364	0.00035
  3068	50.118724823	0.00035
  3069	63.0957336426	0.00035
  3070	79.4328231812	0.00035
  3071	100	0.00035
  3072	125.892539978	0.00035
  3073	158.489318848	0.00035
  3074	199.526229858	0.00035
  3075	251.188644409	0.00035
  3076	316.227752686	0.00035
  3077	398.107177734	0.00035
  3078	500	0.00035
  3079	0.10000000149	0.00035
  3080	0.125892534852	0.00035
  3081	0.158489316702	0.00035
  3082	0.199526235461	0.00035
  3083	0.251188635826	0.00035
  3084	0.316227763891	0.00035
  3085	0.398107171059	0.00035
  3086	0.501187205315	0.00035
  3087	0.630957365036	0.00035
  3088	0.794328212738	0.00035
  3089	1	0.00035
  3090	1.25892543793	0.00035
  3091	1.58489322662	0.00035
  3092	1.99526226521	0.00035
  3093	2.51188635826	0.00035
  3094	3.16227769852	0.00035
  3095	3.98107171059	0.00035
  3096	5.01187229156	0.00035
  3097	6.30957365036	0.00035
  3098	7.94328212738	0.00035
  3099	10	0.00035
  3100	12.5892543793	0.00035
  3101	15.8489322662	0.00035
  3102	19.9526233673	0.00035
  3103	25.1188640594	0.00035
  3104	31.6227760315	0.00035
  3105	39.8107185364	0.00035
  3106	50.118724823	0.00035
  3107	63.0957336426	0.00035
  3108	79.4328231812	0.00035
  3109	100	0.00035
  3110	125.892539978	0.00035
  3111	158.489318848	0.00035
  3112	199.526229858	0.00035
  3113	251.188644409	0.00035
  3114	316.227752686	0.00035
  3115	398.107177734	0.00035
  3116	500	0.00035
  3117	0.10000000149	0.00035
  3118	0.125892534852	0.00035
  3119	0.158489316702	0.00035
  3120	0.199526235461	0.00035
  3121	0.251188635826	0.00035
  3122	0.316227763891	0.00035
  3123	0.398107171059	0.00035
  3124	0.501187205315	0.00035
  3125	0.630957365036	0.00035
  3126	0.794328212738	0.00035
  3127	1	0.00035
  3128	1.25892543793	0.00035
  3129	1.58489322662	0.00035
  3130	1.99526226521	0.00035
  3131	2.51188635826	0.00035
  3132	3.16227769852	0.00035
  3133	3.98107171059	0.00035
  3134	5.01187229156	0.00035
  3135	6.30957365036	0.00035
  3136	7.94328212738	0.00035
  3137	10	0.00035
  3138	12.5892543793	0.00035
  3139	15.8489322662	0.00035
  3140	19.9526233673	0.00035
  3141	25.1188640594	0.00035
  3142	31.6227760315	0.00035
  3143	39.8107185364	0.00035
  3144	50.118724823	0.00035
  3145	63.0957336426	0.00035
  3146	79.4328231812	0.00035
  3147	100	0.00035
  3148	125.892539978	0.00035
  3149	158.489318848	0.00035
  3150	199.526229858	0.00035
  3151	251.188644409	0.00035
  3152	316.227752686	0.00035
  3153	398.107177734	0.00035
  3154	500	0.00035
  3155	0.10000000149	0.00035
  3156	0.125892534852	0.00035
  3157	0.158489316702	0.00035
  3158	0.199526235461	0.00035
  3159	0.251188635826	0.00035
  3160	0.316227763891	0.00035
  3161	0.398107171059	0.00035
  3162	0.501187205315	0.00035
  3163	0.630957365036	0.00035
  3164	0.794328212738	0.00035
  3165	1	0.00035
  3166	1.25892543793	0.00035
  3167	1.58489322662	0.00035
  3168	1.99526226521	0.00035
  3169	2.51188635826	0.00035
  3170	3.16227769852	0.00035
  3171	3.98107171059	0.00035
  3172	5.01187229156	0.00035
  3173	6.30957365036	0.00035
  3174	7.94328212738	0.00035
  3175	10	0.00035
  3176	12.5892543793	0.00035
  3177	15.8489322662	0.00035
  3178	19.9526233673	0.00035
  3179	25.1188640594	0.00035
  3180	31.6227760315	0.00035
  3181	39.8107185364	0.00035
  3182	50.118724823	0.00035
  3183	63.0957336426	0.00035
  3184	79.4328231812	0.00035
  3185	100	0.00035
  3186	125.892539978	0.00035
  3187	158.489318848	0.00035
  3188	199.526229858	0.00035
  3189	251.188644409	0.00035
  3190	316.227752686	0.00035
  3191	398.107177734	0.00035
  3192	500	0.00035
  3193	0.10000000149	0.00035
  3194	0.125892534852	0.00035
  3195	0.158489316702	0.00035
  3196	0.199526235461	0.00035
  3197	0.251188635826	0.00035
  3198	0.316227763891	0.00035
  3199	0.398107171059	0.00035
  3200	0.501187205315	0.00035
  3201	0.630957365036	0.00035
  3202	0.794328212738	0.00035
  3203	1	0.00035
  3204	1.25892543793	0.00035
  3205	1.58489322662	0.00035
  3206	1.99526226521	0.00035
  3207	2.51188635826	0.00035
  3208	3.16227769852	0.00035
  3209	3.98107171059	0.00035
  3210	5.01187229156	0.00035
  3211	6.30957365036	0.00035
  3212	7.94328212738	0.00035
  3213	10	0.00035
  3214	12.5892543793	0.00035
  3215	15.8489322662	0.00035
  3216	19.9526233673	0.00035
  3217	25.1188640594	0.00035
  3218	31.6227760315	0.00035
  3219	39.8107185364	0.00035
  3220	50.118724823	0.00035
  3221	63.0957336426	0.00035
  3222	79.4328231812	0.00035
  3223	100	0.00035
  3224	125.892539978	0.00035
  3225	158.489318848	0.00035
  3226	199.526229858	0.00035
  3227	251.188644409	0.00035
  3228	316.227752686	0.00035
  3229	398.107177734	0.00035
  3230	500	0.00035
  3231	0.10000000149	0.00035
  3232	0.125892534852	0.00035
  3233	0.158489316702	0.00035
  3234	0.199526235461	0.00035
  3235	0.251188635826	0.00035
  3236	0.316227763891	0.00035
  3237	0.398107171059	0.00035
  3238	0.501187205315	0.00035
  3239	0.630957365036	0.00035
  3240	0.794328212738	0.00035
  3241	1	0.00035
  3242	1.25892543793	0.00035
  3243	1.58489322662	0.00035
  3244	1.99526226521	0.00035
  3245	2.51188635826	0.00035
  3246	3.16227769852	0.00035
  3247	3.98107171059	0.00035
  3248	5.01187229156	0.00035
  3249	6.30957365036	0.00035
  3250	7.94328212738	0.00035
  3251	10	0.00035
  3252	12.5892543793	0.00035
  3253	15.8489322662	0.00035
  3254	19.9526233673	0.00035
  3255	25.1188640594	0.00035
  3256	31.6227760315	0.00035
  3257	39.8107185364	0.00035
  3258	50.118724823	0.00035
  3259	63.0957336426	0.00035
  3260	79.4328231812	0.00035
  3261	100	0.00035
  3262	125.892539978	0.00035
  3263	158.489318848	0.00035
  3264	199.526229858	0.00035
  3265	251.188644409	0.00035
  3266	316.227752686	0.00035
  3267	398.107177734	0.00035
  3268	500	0.00035
  3269	0.10000000149	0.00035
  3270	0.125892534852	0.00035
  3271	0.158489316702	0.00035
  3272	0.199526235461	0.00035
  3273	0.251188635826	0.00035
  3274	0.316227763891	0.00035
  3275	0.398107171059	0.00035
  3276	0.501187205315	0.00035
  3277	0.630957365036	0.00035
  3278	0.794328212738	0.00035
  3279	1	0.00035
  3280	1.25892543793	0.00035
  3281	1.58489322662	0.00035
  3282	1.99526226521	0.00035
  3283	2.51188635826	0.00035
  3284	3.16227769852	0.00035
  3285	3.98107171059	0.00035
  3286	5.01187229156	0.00035
  3287	6.30957365036	0.00035
  3288	7.94328212738	0.00035
  3289	10	0.00035
  3290	12.5892543793	0.00035
  3291	15.8489322662	0.00035
  3292	19.9526233673	0.00035
  3293	25.1188640594	0.00035
  3294	31.6227760315	0.00035
  3295	39.8107185364	0.00035
  3296	50.118724823	0.00035
  3297	63.0957336426	0.00035
  3298	79.4328231812	0.00035
  3299	100	0.00035
  3300	125.892539978	0.00035
  3301	158.489318848	0.00035
  3302	199.526229858	0.00035
  3303	251.188644409	0.00035
  3304	316.227752686	0.00035
  3305	398.107177734	0.00035
  3306	500	0.00035
  3307	0.10000000149	0.00035
  3308	0.125892534852	0.00035
  3309	0.158489316702	0.00035
  3310	0.199526235461	0.00035
  3311	0.251188635826	0.00035
  3312	0.316227763891	0.00035
  3313	0.398107171059	0.00035
  3314	0.501187205315	0.00035
  3315	0.630957365036	0.00035
  3316	0.794328212738	0.00035
  3317	1	0.00035
  3318	1.25892543793	0.00035
  3319	1.58489322662	0.00035
  3320	1.99526226521	0.00035
  3321	2.51188635826	0.00035
  3322	3.16227769852	0.00035
  3323	3.98107171059	0.00035
  3324	5.01187229156	0.00035
  3325	6.30957365036	0.00035
  3326	7.94328212738	0.00035
  3327	10	0.00035
  3328	12.5892543793	0.00035
  3329	15.8489322662	0.00035
  3330	19.9526233673	0.00035
  3331	25.1188640594	0.00035
  3332	31.6227760315	0.00035
  3333	39.8107185364	0.00035
  3334	50.118724823	0.00035
  3335	63.0957336426	0.00035
  3336	79.4328231812	0.00035
  3337	100	0.00035
  3338	125.892539978	0.00035
  3339	158.489318848	0.00035
  3340	199.526229858	0.00035
  3341	251.188644409	0.00035
  3342	316.227752686	0.00035
  3343	398.107177734	0.00035
  3344	500	0.00035
  3345	0.10000000149	0.00035
  3346	0.125892534852	0.00035
  3347	0.158489316702	0.00035
  3348	0.199526235461	0.00035
  3349	0.251188635826	0.00035
  3350	0.316227763891	0.00035
  3351	0.398107171059	0.00035
  3352	0.501187205315	0.00035
  3353	0.630957365036	0.00035
  3354	0.794328212738	0.00035
  3355	1	0.00035
  3356	1.25892543793	0.00035
  3357	1.58489322662	0.00035
  3358	1.99526226521	0.00035
  3359	2.51188635826	0.00035
  3360	3.16227769852	0.00035
  3361	3.98107171059	0.00035
  3362	5.01187229156	0.00035
  3363	6.30957365036	0.00035
  3364	7.94328212738	0.00035
  3365	10	0.00035
  3366	12.5892543793	0.00035
  3367	15.8489322662	0.00035
  3368	19.9526233673	0.00035
  3369	25.1188640594	0.00035
  3370	31.6227760315	0.00035
  3371	39.8107185364	0.00035
  3372	50.118724823	0.00035
  3373	63.0957336426	0.00035
  3374	79.4328231812	0.00035
  3375	100	0.00035
  3376	125.892539978	0.00035
  3377	158.489318848	0.00035
  3378	199.526229858	0.00035
  3379	251.188644409	0.00035
  3380	316.227752686	0.00035
  3381	398.107177734	0.00035
  3382	500	0.00035
  3383	0.10000000149	0.00035
  3384	0.125892534852	0.00035
  3385	0.158489316702	0.00035
  3386	0.199526235461	0.00035
  3387	0.251188635826	0.00035
  3388	0.316227763891	0.00035
  3389	0.398107171059	0.00035
  3390	0.501187205315	0.00035
  3391	0.630957365036	0.00035
  3392	0.794328212738	0.00035
  3393	1	0.00035
  3394	1.25892543793	0.00035
  3395	1.58489322662	0.00035
  3396	1.99526226521	0.00035
  3397	2.51188635826	0.00035
  3398	3.16227769852	0.00035
  3399	3.98107171059	0.00035
  3400	5.01187229156	0.00035
  3401	6.30957365036	0.00035
  3402	7.94328212738	0.00035
  3403	10	0.00035
  3404	12.5892543793	0.00035
  3405	15.8489322662	0.00035
  3406	19.9526233673	0.00035
  3407	25.1188640594	0.00035
  3408	31.6227760315	0.00035
  3409	39.8107185364	0.00035
  3410	50.118724823	0.00035
  3411	63.0957336426	0.00035
  3412	79.4328231812	0.00035
  3413	100	0.00035
  3414	125.892539978	0.00035
  3415	158.489318848	0.00035
  3416	199.526229858	0.00035
  3417	251.188644409	0.00035
  3418	316.227752686	0.00035
  3419	398.107177734	0.00035
  3420	500	0.00035
  3421	0.10000000149	0.00035
  3422	0.125892534852	0.00035
  3423	0.158489316702	0.00035
  3424	0.199526235461	0.00035
  3425	0.251188635826	0.00035
  3426	0.316227763891	0.00035
  3427	0.398107171059	0.00035
  3428	0.501187205315	0.00035
  3429	0.630957365036	0.00035
  3430	0.794328212738	0.00035
  3431	1	0.00035
  3432	1.25892543793	0.00035
  3433	1.58489322662	0.00035
  3434	1.99526226521	0.00035
  3435	2.51188635826	0.00035
  3436	3.16227769852	0.00035
  3437	3.98107171059	0.00035
  3438	5.01187229156	0.00035
  3439	6.30957365036	0.00035
  3440	7.94328212738	0.00035
  3441	10	0.00035
  3442	12.5892543793	0.00035
  3443	15.8489322662	0.00035
  3444	19.9526233673	0.00035
  3445	25.1188640594	0.00035
  3446	31.6227760315	0.00035
  3447	39.8107185364	0.00035
  3448	50.118724823	0.00035
  3449	63.0957336426	0.00035
  3450	79.4328231812	0.00035
  3451	100	0.00035
  3452	125.892539978	0.00035
  3453	158.489318848	0.00035
  3454	199.526229858	0.00035
  3455	251.188644409	0.00035
  3456	316.227752686	0.00035
  3457	398.107177734	0.00035
  3458	500	0.00035
  3459	0.10000000149	0.00035
  3460	0.125892534852	0.00035
  3461	0.158489316702	0.00035
  3462	0.199526235461	0.00035
  3463	0.251188635826	0.00035
  3464	0.316227763891	0.00035
  3465	0.398107171059	0.00035
  3466	0.501187205315	0.00035
  3467	0.630957365036	0.00035
  3468	0.794328212738	0.00035
  3469	1	0.00035
  3470	1.25892543793	0.00035
  3471	1.58489322662	0.00035
  3472	1.99526226521	0.00035
  3473	2.51188635826	0.00035
  3474	3.16227769852	0.00035
  3475	3.98107171059	0.00035
  3476	5.01187229156	0.00035
  3477	6.30957365036	0.00035
  3478	7.94328212738	0.00035
  3479	10	0.00035
  3480	12.5892543793	0.00035
  3481	15.8489322662	0.00035
  3482	19.9526233673	0.00035
  3483	25.1188640594	0.00035
  3484	31.6227760315	0.00035
  3485	39.8107185364	0.00035
  3486	50.118724823	0.00035
  3487	63.0957336426	0.00035
  3488	79.4328231812	0.00035
  3489	100	0.00035
  3490	125.892539978	0.00035
  3491	158.489318848	0.00035
  3492	199.526229858	0.00035
  3493	251.188644409	0.00035
  3494	316.227752686	0.00035
  3495	398.107177734	0.00035
  3496	500	0.00035
  3497	0.10000000149	0.00035
  3498	0.125892534852	0.00035
  3499	0.158489316702	0.00035
  3500	0.199526235461	0.00035
  3501	0.251188635826	0.00035
  3502	0.316227763891	0.00035
  3503	0.398107171059	0.00035
  3504	0.501187205315	0.00035
  3505	0.630957365036	0.00035
  3506	0.794328212738	0.00035
  3507	1	0.00035
  3508	1.25892543793	0.00035
  3509	1.58489322662	0.00035
  3510	1.99526226521	0.00035
  3511	2.51188635826	0.00035
  3512	3.16227769852	0.00035
  3513	3.98107171059	0.00035
  3514	5.01187229156	0.00035
  3515	6.30957365036	0.00035
  3516	7.94328212738	0.00035
  3517	10	0.00035
  3518	12.5892543793	0.00035
  3519	15.8489322662	0.00035
  3520	19.9526233673	0.00035
  3521	25.1188640594	0.00035
  3522	31.6227760315	0.00035
  3523	39.8107185364	0.00035
  3524	50.118724823	0.00035
  3525	63.0957336426	0.00035
  3526	79.4328231812	0.00035
  3527	100	0.00035
  3528	125.892539978	0.00035
  3529	158.489318848	0.00035
  3530	199.526229858	0.00035
  3531	251.188644409	0.00035
  3532	316.227752686	0.00035
  3533	398.107177734	0.00035
  3534	500	0.00035
  3535	0.10000000149	0.00035
  3536	0.125892534852	0.00035
  3537	0.158489316702	0.00035
  3538	0.199526235461	0.00035
  3539	0.251188635826	0.00035
  3540	0.316227763891	0.00035
  3541	0.398107171059	0.00035
  3542	0.501187205315	0.00035
  3543	0.630957365036	0.00035
  3544	0.794328212738	0.00035
  3545	1	0.00035
  3546	1.25892543793	0.00035
  3547	1.58489322662	0.00035
  3548	1.99526226521	0.00035
  3549	2.51188635826	0.00035
  3550	3.16227769852	0.00035
  3551	3.98107171059	0.00035
  3552	5.01187229156	0.00035
  3553	6.30957365036	0.00035
  3554	7.94328212738	0.00035
  3555	10	0.00035
  3556	12.5892543793	0.00035
  3557	15.8489322662	0.00035
  3558	19.9526233673	0.00035
  3559	25.1188640594	0.00035
  3560	31.6227760315	0.00035
  3561	39.8107185364	0.00035
  3562	50.118724823	0.00035
  3563	63.0957336426	0.00035
  3564	79.4328231812	0.00035
  3565	100	0.00035
  3566	125.892539978	0.00035
  3567	158.489318848	0.00035
  3568	199.526229858	0.00035
  3569	251.188644409	0.00035
  3570	316.227752686	0.00035
  3571	398.107177734	0.00035
  3572	500	0.00035
  3573	0.10000000149	0.00035
  3574	0.125892534852	0.00035
  3575	0.158489316702	0.00035
  3576	0.199526235461	0.00035
  3577	0.251188635826	0.00035
  3578	0.316227763891	0.00035
  3579	0.398107171059	0.00035
  3580	0.501187205315	0.00035
  3581	0.630957365036	0.00035
  3582	0.794328212738	0.00035
  3583	1	0.00035
  3584	1.25892543793	0.00035
  3585	1.58489322662	0.00035
  3586	1.99526226521	0.00035
  3587	2.51188635826	0.00035
  3588	3.16227769852	0.00035
  3589	3.98107171059	0.00035
  3590	5.01187229156	0.00035
  3591	6.30957365036	0.00035
  3592	7.94328212738	0.00035
  3593	10	0.00035
  3594	12.5892543793	0.00035
  3595	15.8489322662	0.00035
  3596	19.9526233673	0.00035
  3597	25.1188640594	0.00035
  3598	31.6227760315	0.00035
  3599	39.8107185364	0.00035
  3600	50.118724823	0.00035
  3601	63.0957336426	0.00035
  3602	79.4328231812	0.00035
  3603	100	0.00035
  3604	125.892539978	0.00035
  3605	158.489318848	0.00035
  3606	199.526229858	0.00035
  3607	251.188644409	0.00035
  3608	316.227752686	0.00035
  3609	398.107177734	0.00035
  3610	500	0.00035
  3611	0.10000000149	0.00035
  3612	0.125892534852	0.00035
  3613	0.158489316702	0.00035
  3614	0.199526235461	0.00035
  3615	0.251188635826	0.00035
  3616	0.316227763891	0.00035
  3617	0.398107171059	0.00035
  3618	0.501187205315	0.00035
  3619	0.630957365036	0.00035
  3620	0.794328212738	0.00035
  3621	1	0.00035
  3622	1.25892543793	0.00035
  3623	1.58489322662	0.00035
  3624	1.99526226521	0.00035
  3625	2.51188635826	0.00035
  3626	3.16227769852	0.00035
  3627	3.98107171059	0.00035
  3628	5.01187229156	0.00035
  3629	6.30957365036	0.00035
  3630	7.94328212738	0.00035
  3631	10	0.00035
  3632	12.5892543793	0.00035
  3633	15.8489322662	0.00035
  3634	19.9526233673	0.00035
  3635	25.1188640594	0.00035
  3636	31.6227760315	0.00035
  3637	39.8107185364	0.00035
  3638	50.118724823	0.00035
  3639	63.0957336426	0.00035
  3640	79.4328231812	0.00035
  3641	100	0.00035
  3642	125.892539978	0.00035
  3643	158.489318848	0.00035
  3644	199.526229858	0.00035
  3645	251.188644409	0.00035
  3646	316.227752686	0.00035
  3647	398.107177734	0.00035
  3648	500	0.00035
